data_Cr2O3-FeCr
_audit_creation_date              2020-08-03
_audit_creation_method            'Materials Studio'
_symmetry_space_group_name_H-M    'P1'
_symmetry_Int_Tables_number       1
_symmetry_cell_setting            triclinic
loop_
_symmetry_equiv_pos_as_xyz
  x,y,z
_cell_length_a                    22.6439
_cell_length_b                    22.6439
_cell_length_c                    120.7734
_cell_angle_alpha                 90.0000
_cell_angle_beta                  90.0000
_cell_angle_gamma                 90.0000
loop_
_atom_site_label
_atom_site_type_symbol
_atom_site_fract_x
_atom_site_fract_y
_atom_site_fract_z
_atom_site_U_iso_or_equiv
_atom_site_adp_type
_atom_site_occupancy
Cr1    Cr    0.06667   0.13333   0.32601   0.00000  Uiso   1.00
Cr2    Cr    0.13333   0.06667   0.34678   0.00000  Uiso   1.00
Cr3    Cr    0.00000   0.00000   0.34309   0.00000  Uiso   1.00
Cr4    Cr    0.06667   0.13333   0.36386   0.00000  Uiso   1.00
Cr5    Cr    0.00000   0.00000   0.36756   0.00000  Uiso   1.00
Cr6    Cr    0.06667   0.13333   0.01437   0.00000  Uiso   1.00
Cr7    Cr    0.06667   0.13333   0.38833   0.00000  Uiso   1.00
Cr8    Cr    0.13333   0.06667   0.01068   0.00000  Uiso   1.00
Cr9    Cr    0.13333   0.06667   0.38464   0.00000  Uiso   1.00
Cr10   Cr    0.00000   0.00000   0.03146   0.00000  Uiso   1.00
Cr11   Cr    0.00000   0.00000   0.40541   0.00000  Uiso   1.00
Cr12   Cr    0.13333   0.06667   0.03515   0.00000  Uiso   1.00
Cr13   Cr    0.13333   0.06667   0.40911   0.00000  Uiso   1.00
Cr14   Cr    0.00000   0.00000   0.05593   0.00000  Uiso   1.00
Cr15   Cr    0.00000   0.00000   0.42988   0.00000  Uiso   1.00
Cr16   Cr    0.06667   0.13333   0.05223   0.00000  Uiso   1.00
Cr17   Cr    0.06667   0.13333   0.42619   0.00000  Uiso   1.00
Cr18   Cr    0.13333   0.06667   0.07301   0.00000  Uiso   1.00
Cr19   Cr    0.13333   0.06667   0.44697   0.00000  Uiso   1.00
O20    O     0.06076   0.00000   0.35532   0.00000  Uiso   1.00
O21    O     0.00000   0.06076   0.35532   0.00000  Uiso   1.00
O22    O     0.13924   0.13924   0.35532   0.00000  Uiso   1.00
O23    O     0.07257   0.06667   0.33455   0.00000  Uiso   1.00
O24    O     0.13333   0.00591   0.33455   0.00000  Uiso   1.00
O25    O     0.19409   0.12743   0.33455   0.00000  Uiso   1.00
O26    O     0.19409   0.06667   0.02292   0.00000  Uiso   1.00
O27    O     0.19409   0.06667   0.39687   0.00000  Uiso   1.00
O28    O     0.13333   0.12743   0.02292   0.00000  Uiso   1.00
O29    O     0.13333   0.12743   0.39687   0.00000  Uiso   1.00
O30    O     0.07257   0.00591   0.02292   0.00000  Uiso   1.00
O31    O     0.07257   0.00591   0.39687   0.00000  Uiso   1.00
O32    O     0.00591   0.13333   0.50929   0.00000  Uiso   1.00
O33    O     0.00591   0.13333   0.37610   0.00000  Uiso   1.00
O34    O     0.06667   0.07257   0.50929   0.00000  Uiso   1.00
O35    O     0.06667   0.07257   0.37610   0.00000  Uiso   1.00
O36    O     0.12743   0.19409   0.50929   0.00000  Uiso   1.00
O37    O     0.12743   0.19409   0.37610   0.00000  Uiso   1.00
O38    O     0.12743   0.13333   0.06447   0.00000  Uiso   1.00
O39    O     0.12743   0.13333   0.43842   0.00000  Uiso   1.00
O40    O     0.06667   0.19409   0.06447   0.00000  Uiso   1.00
O41    O     0.06667   0.19409   0.43842   0.00000  Uiso   1.00
O42    O     0.00591   0.07257   0.06447   0.00000  Uiso   1.00
O43    O     0.00591   0.07257   0.43842   0.00000  Uiso   1.00
O44    O     0.13924   0.00000   0.04369   0.00000  Uiso   1.00
O45    O     0.13924   0.00000   0.41765   0.00000  Uiso   1.00
O46    O     0.00000   0.13924   0.04369   0.00000  Uiso   1.00
O47    O     0.00000   0.13924   0.41765   0.00000  Uiso   1.00
O48    O     0.06076   0.06076   0.04369   0.00000  Uiso   1.00
O49    O     0.06076   0.06076   0.41765   0.00000  Uiso   1.00
Cr50   Cr    0.26667   0.13333   0.32601   0.00000  Uiso   1.00
Cr51   Cr    0.33333   0.06667   0.34678   0.00000  Uiso   1.00
Cr52   Cr    0.20000   0.00000   0.34309   0.00000  Uiso   1.00
Cr53   Cr    0.26667   0.13333   0.36386   0.00000  Uiso   1.00
Cr54   Cr    0.20000   0.00000   0.36756   0.00000  Uiso   1.00
Cr55   Cr    0.26667   0.13333   0.01437   0.00000  Uiso   1.00
Cr56   Cr    0.26667   0.13333   0.38833   0.00000  Uiso   1.00
Cr57   Cr    0.33333   0.06667   0.01068   0.00000  Uiso   1.00
Cr58   Cr    0.33333   0.06667   0.38464   0.00000  Uiso   1.00
Cr59   Cr    0.20000  -0.00000   0.03146   0.00000  Uiso   1.00
Cr60   Cr    0.20000  -0.00000   0.40541   0.00000  Uiso   1.00
Cr61   Cr    0.33333   0.06667   0.03515   0.00000  Uiso   1.00
Cr62   Cr    0.33333   0.06667   0.40911   0.00000  Uiso   1.00
Cr63   Cr    0.20000  -0.00000   0.05593   0.00000  Uiso   1.00
Cr64   Cr    0.20000  -0.00000   0.42988   0.00000  Uiso   1.00
Cr65   Cr    0.26667   0.13333   0.05223   0.00000  Uiso   1.00
Cr66   Cr    0.26667   0.13333   0.42619   0.00000  Uiso   1.00
Cr67   Cr    0.33333   0.06667   0.07301   0.00000  Uiso   1.00
Cr68   Cr    0.33333   0.06667   0.44697   0.00000  Uiso   1.00
O69    O     0.26076   0.00000   0.35532   0.00000  Uiso   1.00
O70    O     0.20000   0.06076   0.35532   0.00000  Uiso   1.00
O71    O     0.33924   0.13924   0.35532   0.00000  Uiso   1.00
O72    O     0.27257   0.06667   0.33455   0.00000  Uiso   1.00
O73    O     0.33333   0.00591   0.33455   0.00000  Uiso   1.00
O74    O     0.39409   0.12743   0.33455   0.00000  Uiso   1.00
O75    O     0.39409   0.06667   0.02292   0.00000  Uiso   1.00
O76    O     0.39409   0.06667   0.39687   0.00000  Uiso   1.00
O77    O     0.33333   0.12743   0.02292   0.00000  Uiso   1.00
O78    O     0.33333   0.12743   0.39687   0.00000  Uiso   1.00
O79    O     0.27257   0.00591   0.02292   0.00000  Uiso   1.00
O80    O     0.27257   0.00591   0.39687   0.00000  Uiso   1.00
O81    O     0.20591   0.13333   0.50929   0.00000  Uiso   1.00
O82    O     0.20591   0.13333   0.37610   0.00000  Uiso   1.00
O83    O     0.26667   0.07257   0.50929   0.00000  Uiso   1.00
O84    O     0.26667   0.07257   0.37610   0.00000  Uiso   1.00
O85    O     0.32743   0.19409   0.50929   0.00000  Uiso   1.00
O86    O     0.32743   0.19409   0.37610   0.00000  Uiso   1.00
O87    O     0.32743   0.13333   0.06447   0.00000  Uiso   1.00
O88    O     0.32743   0.13333   0.43842   0.00000  Uiso   1.00
O89    O     0.26667   0.19409   0.06447   0.00000  Uiso   1.00
O90    O     0.26667   0.19409   0.43842   0.00000  Uiso   1.00
O91    O     0.20591   0.07257   0.06447   0.00000  Uiso   1.00
O92    O     0.20591   0.07257   0.43842   0.00000  Uiso   1.00
O93    O     0.33924   0.00000   0.04369   0.00000  Uiso   1.00
O94    O     0.33924   0.00000   0.41765   0.00000  Uiso   1.00
O95    O     0.20000   0.13924   0.04369   0.00000  Uiso   1.00
O96    O     0.20000   0.13924   0.41765   0.00000  Uiso   1.00
O97    O     0.26076   0.06076   0.04369   0.00000  Uiso   1.00
O98    O     0.26076   0.06076   0.41765   0.00000  Uiso   1.00
Cr99   Cr    0.46667   0.13333   0.32601   0.00000  Uiso   1.00
Cr100  Cr    0.53333   0.06667   0.34678   0.00000  Uiso   1.00
Cr101  Cr    0.40000  -0.00000   0.34309   0.00000  Uiso   1.00
Cr102  Cr    0.46667   0.13333   0.36386   0.00000  Uiso   1.00
Cr103  Cr    0.40000  -0.00000   0.36756   0.00000  Uiso   1.00
Cr104  Cr    0.46667   0.13333   0.01437   0.00000  Uiso   1.00
Cr105  Cr    0.46667   0.13333   0.38833   0.00000  Uiso   1.00
Cr106  Cr    0.53333   0.06667   0.01068   0.00000  Uiso   1.00
Cr107  Cr    0.53333   0.06667   0.38464   0.00000  Uiso   1.00
Cr108  Cr    0.40000  -0.00000   0.03146   0.00000  Uiso   1.00
Cr109  Cr    0.40000  -0.00000   0.40541   0.00000  Uiso   1.00
Cr110  Cr    0.53333   0.06667   0.03515   0.00000  Uiso   1.00
Cr111  Cr    0.53333   0.06667   0.40911   0.00000  Uiso   1.00
Cr112  Cr    0.40000  -0.00000   0.05593   0.00000  Uiso   1.00
Cr113  Cr    0.40000  -0.00000   0.42988   0.00000  Uiso   1.00
Cr114  Cr    0.46667   0.13333   0.05223   0.00000  Uiso   1.00
Cr115  Cr    0.46667   0.13333   0.42619   0.00000  Uiso   1.00
Cr116  Cr    0.53333   0.06667   0.07301   0.00000  Uiso   1.00
Cr117  Cr    0.53333   0.06667   0.44697   0.00000  Uiso   1.00
O118   O     0.46076   0.00000   0.35532   0.00000  Uiso   1.00
O119   O     0.40000   0.06076   0.35532   0.00000  Uiso   1.00
O120   O     0.53924   0.13924   0.35532   0.00000  Uiso   1.00
O121   O     0.47257   0.06667   0.33455   0.00000  Uiso   1.00
O122   O     0.53333   0.00591   0.33455   0.00000  Uiso   1.00
O123   O     0.59409   0.12743   0.33455   0.00000  Uiso   1.00
O124   O     0.59409   0.06667   0.02292   0.00000  Uiso   1.00
O125   O     0.59409   0.06667   0.39687   0.00000  Uiso   1.00
O126   O     0.53333   0.12743   0.02292   0.00000  Uiso   1.00
O127   O     0.53333   0.12743   0.39687   0.00000  Uiso   1.00
O128   O     0.47257   0.00591   0.02292   0.00000  Uiso   1.00
O129   O     0.47257   0.00591   0.39687   0.00000  Uiso   1.00
O130   O     0.40591   0.13333   0.50929   0.00000  Uiso   1.00
O131   O     0.40591   0.13333   0.37610   0.00000  Uiso   1.00
O132   O     0.46667   0.07257   0.50929   0.00000  Uiso   1.00
O133   O     0.46667   0.07257   0.37610   0.00000  Uiso   1.00
O134   O     0.52743   0.19409   0.50929   0.00000  Uiso   1.00
O135   O     0.52743   0.19409   0.37610   0.00000  Uiso   1.00
O136   O     0.52743   0.13333   0.06447   0.00000  Uiso   1.00
O137   O     0.52743   0.13333   0.43842   0.00000  Uiso   1.00
O138   O     0.46667   0.19409   0.06447   0.00000  Uiso   1.00
O139   O     0.46667   0.19409   0.43842   0.00000  Uiso   1.00
O140   O     0.40591   0.07257   0.06447   0.00000  Uiso   1.00
O141   O     0.40591   0.07257   0.43842   0.00000  Uiso   1.00
O142   O     0.53924   0.00000   0.04369   0.00000  Uiso   1.00
O143   O     0.53924   0.00000   0.41765   0.00000  Uiso   1.00
O144   O     0.40000   0.13924   0.04369   0.00000  Uiso   1.00
O145   O     0.40000   0.13924   0.41765   0.00000  Uiso   1.00
O146   O     0.46076   0.06076   0.04369   0.00000  Uiso   1.00
O147   O     0.46076   0.06076   0.41765   0.00000  Uiso   1.00
Cr148  Cr    0.66667   0.13333   0.32601   0.00000  Uiso   1.00
Cr149  Cr    0.73333   0.06667   0.34678   0.00000  Uiso   1.00
Cr150  Cr    0.60000  -0.00000   0.34309   0.00000  Uiso   1.00
Cr151  Cr    0.66667   0.13333   0.36386   0.00000  Uiso   1.00
Cr152  Cr    0.60000  -0.00000   0.36756   0.00000  Uiso   1.00
Cr153  Cr    0.66667   0.13333   0.01437   0.00000  Uiso   1.00
Cr154  Cr    0.66667   0.13333   0.38833   0.00000  Uiso   1.00
Cr155  Cr    0.73333   0.06667   0.01068   0.00000  Uiso   1.00
Cr156  Cr    0.73333   0.06667   0.38464   0.00000  Uiso   1.00
Cr157  Cr    0.60000  -0.00000   0.03146   0.00000  Uiso   1.00
Cr158  Cr    0.60000  -0.00000   0.40541   0.00000  Uiso   1.00
Cr159  Cr    0.73333   0.06667   0.03515   0.00000  Uiso   1.00
Cr160  Cr    0.73333   0.06667   0.40911   0.00000  Uiso   1.00
Cr161  Cr    0.60000  -0.00000   0.05593   0.00000  Uiso   1.00
Cr162  Cr    0.60000  -0.00000   0.42988   0.00000  Uiso   1.00
Cr163  Cr    0.66667   0.13333   0.05223   0.00000  Uiso   1.00
Cr164  Cr    0.66667   0.13333   0.42619   0.00000  Uiso   1.00
Cr165  Cr    0.73333   0.06667   0.07301   0.00000  Uiso   1.00
Cr166  Cr    0.73333   0.06667   0.44697   0.00000  Uiso   1.00
O167   O     0.66076   0.00000   0.35532   0.00000  Uiso   1.00
O168   O     0.60000   0.06076   0.35532   0.00000  Uiso   1.00
O169   O     0.73924   0.13924   0.35532   0.00000  Uiso   1.00
O170   O     0.67257   0.06667   0.33455   0.00000  Uiso   1.00
O171   O     0.73333   0.00591   0.33455   0.00000  Uiso   1.00
O172   O     0.79409   0.12743   0.33455   0.00000  Uiso   1.00
O173   O     0.79409   0.06667   0.02292   0.00000  Uiso   1.00
O174   O     0.79409   0.06667   0.39687   0.00000  Uiso   1.00
O175   O     0.73333   0.12743   0.02292   0.00000  Uiso   1.00
O176   O     0.73333   0.12743   0.39687   0.00000  Uiso   1.00
O177   O     0.67257   0.00591   0.02292   0.00000  Uiso   1.00
O178   O     0.67257   0.00591   0.39687   0.00000  Uiso   1.00
O179   O     0.60591   0.13333   0.50929   0.00000  Uiso   1.00
O180   O     0.60591   0.13333   0.37610   0.00000  Uiso   1.00
O181   O     0.66667   0.07257   0.50929   0.00000  Uiso   1.00
O182   O     0.66667   0.07257   0.37610   0.00000  Uiso   1.00
O183   O     0.72743   0.19409   0.50929   0.00000  Uiso   1.00
O184   O     0.72743   0.19409   0.37610   0.00000  Uiso   1.00
O185   O     0.72743   0.13333   0.06447   0.00000  Uiso   1.00
O186   O     0.72743   0.13333   0.43842   0.00000  Uiso   1.00
O187   O     0.66667   0.19409   0.06447   0.00000  Uiso   1.00
O188   O     0.66667   0.19409   0.43842   0.00000  Uiso   1.00
O189   O     0.60591   0.07257   0.06447   0.00000  Uiso   1.00
O190   O     0.60591   0.07257   0.43842   0.00000  Uiso   1.00
O191   O     0.73924  -0.00000   0.04369   0.00000  Uiso   1.00
O192   O     0.73924  -0.00000   0.41765   0.00000  Uiso   1.00
O193   O     0.60000   0.13924   0.04369   0.00000  Uiso   1.00
O194   O     0.60000   0.13924   0.41765   0.00000  Uiso   1.00
O195   O     0.66076   0.06076   0.04369   0.00000  Uiso   1.00
O196   O     0.66076   0.06076   0.41765   0.00000  Uiso   1.00
Cr197  Cr    0.86667   0.13333   0.32601   0.00000  Uiso   1.00
Cr198  Cr    0.93333   0.06667   0.34678   0.00000  Uiso   1.00
Cr199  Cr    0.80000  -0.00000   0.34309   0.00000  Uiso   1.00
Cr200  Cr    0.86667   0.13333   0.36386   0.00000  Uiso   1.00
Cr201  Cr    0.80000  -0.00000   0.36756   0.00000  Uiso   1.00
Cr202  Cr    0.86667   0.13333   0.01437   0.00000  Uiso   1.00
Cr203  Cr    0.86667   0.13333   0.38833   0.00000  Uiso   1.00
Cr204  Cr    0.93333   0.06667   0.01068   0.00000  Uiso   1.00
Cr205  Cr    0.93333   0.06667   0.38464   0.00000  Uiso   1.00
Cr206  Cr    0.80000  -0.00000   0.03146   0.00000  Uiso   1.00
Cr207  Cr    0.80000  -0.00000   0.40541   0.00000  Uiso   1.00
Cr208  Cr    0.93333   0.06667   0.03515   0.00000  Uiso   1.00
Cr209  Cr    0.93333   0.06667   0.40911   0.00000  Uiso   1.00
Cr210  Cr    0.80000  -0.00000   0.05593   0.00000  Uiso   1.00
Cr211  Cr    0.80000  -0.00000   0.42988   0.00000  Uiso   1.00
Cr212  Cr    0.86667   0.13333   0.05223   0.00000  Uiso   1.00
Cr213  Cr    0.86667   0.13333   0.42619   0.00000  Uiso   1.00
Cr214  Cr    0.93333   0.06667   0.07301   0.00000  Uiso   1.00
Cr215  Cr    0.93333   0.06667   0.44697   0.00000  Uiso   1.00
O216   O     0.86076   0.00000   0.35532   0.00000  Uiso   1.00
O217   O     0.80000   0.06076   0.35532   0.00000  Uiso   1.00
O218   O     0.93924   0.13924   0.35532   0.00000  Uiso   1.00
O219   O     0.87257   0.06667   0.33455   0.00000  Uiso   1.00
O220   O     0.93333   0.00591   0.33455   0.00000  Uiso   1.00
O221   O     0.99409   0.12743   0.33455   0.00000  Uiso   1.00
O222   O     0.99409   0.06667   0.02292   0.00000  Uiso   1.00
O223   O     0.99409   0.06667   0.39687   0.00000  Uiso   1.00
O224   O     0.93333   0.12743   0.02292   0.00000  Uiso   1.00
O225   O     0.93333   0.12743   0.39687   0.00000  Uiso   1.00
O226   O     0.87257   0.00591   0.02292   0.00000  Uiso   1.00
O227   O     0.87257   0.00591   0.39687   0.00000  Uiso   1.00
O228   O     0.80591   0.13333   0.50929   0.00000  Uiso   1.00
O229   O     0.80591   0.13333   0.37610   0.00000  Uiso   1.00
O230   O     0.86667   0.07257   0.50929   0.00000  Uiso   1.00
O231   O     0.86667   0.07257   0.37610   0.00000  Uiso   1.00
O232   O     0.92743   0.19409   0.50929   0.00000  Uiso   1.00
O233   O     0.92743   0.19409   0.37610   0.00000  Uiso   1.00
O234   O     0.92743   0.13333   0.06447   0.00000  Uiso   1.00
O235   O     0.92743   0.13333   0.43842   0.00000  Uiso   1.00
O236   O     0.86667   0.19409   0.06447   0.00000  Uiso   1.00
O237   O     0.86667   0.19409   0.43842   0.00000  Uiso   1.00
O238   O     0.80591   0.07257   0.06447   0.00000  Uiso   1.00
O239   O     0.80591   0.07257   0.43842   0.00000  Uiso   1.00
O240   O     0.93924  -0.00000   0.04369   0.00000  Uiso   1.00
O241   O     0.93924  -0.00000   0.41765   0.00000  Uiso   1.00
O242   O     0.80000   0.13924   0.04369   0.00000  Uiso   1.00
O243   O     0.80000   0.13924   0.41765   0.00000  Uiso   1.00
O244   O     0.86076   0.06076   0.04369   0.00000  Uiso   1.00
O245   O     0.86076   0.06076   0.41765   0.00000  Uiso   1.00
Cr246  Cr    0.06667   0.33333   0.32601   0.00000  Uiso   1.00
Cr247  Cr    0.13333   0.26667   0.34678   0.00000  Uiso   1.00
Cr248  Cr    0.00000   0.20000   0.34309   0.00000  Uiso   1.00
Cr249  Cr    0.06667   0.33333   0.36386   0.00000  Uiso   1.00
Cr250  Cr    0.00000   0.20000   0.36756   0.00000  Uiso   1.00
Cr251  Cr    0.06667   0.33333   0.01437   0.00000  Uiso   1.00
Cr252  Cr    0.06667   0.33333   0.38833   0.00000  Uiso   1.00
Cr253  Cr    0.13333   0.26667   0.01068   0.00000  Uiso   1.00
Cr254  Cr    0.13333   0.26667   0.38464   0.00000  Uiso   1.00
Cr255  Cr    0.00000   0.20000   0.03146   0.00000  Uiso   1.00
Cr256  Cr    0.00000   0.20000   0.40541   0.00000  Uiso   1.00
Cr257  Cr    0.13333   0.26667   0.03515   0.00000  Uiso   1.00
Cr258  Cr    0.13333   0.26667   0.40911   0.00000  Uiso   1.00
Cr259  Cr    0.00000   0.20000   0.05593   0.00000  Uiso   1.00
Cr260  Cr    0.00000   0.20000   0.42988   0.00000  Uiso   1.00
Cr261  Cr    0.06667   0.33333   0.05223   0.00000  Uiso   1.00
Cr262  Cr    0.06667   0.33333   0.42619   0.00000  Uiso   1.00
Cr263  Cr    0.13333   0.26667   0.07301   0.00000  Uiso   1.00
Cr264  Cr    0.13333   0.26667   0.44697   0.00000  Uiso   1.00
O265   O     0.06076   0.20000   0.35532   0.00000  Uiso   1.00
O266   O     0.00000   0.26076   0.35532   0.00000  Uiso   1.00
O267   O     0.13924   0.33924   0.35532   0.00000  Uiso   1.00
O268   O     0.07257   0.26667   0.33455   0.00000  Uiso   1.00
O269   O     0.13333   0.20591   0.33455   0.00000  Uiso   1.00
O270   O     0.19409   0.32743   0.33455   0.00000  Uiso   1.00
O271   O     0.19409   0.26667   0.02292   0.00000  Uiso   1.00
O272   O     0.19409   0.26667   0.39687   0.00000  Uiso   1.00
O273   O     0.13333   0.32743   0.02292   0.00000  Uiso   1.00
O274   O     0.13333   0.32743   0.39687   0.00000  Uiso   1.00
O275   O     0.07257   0.20591   0.02292   0.00000  Uiso   1.00
O276   O     0.07257   0.20591   0.39687   0.00000  Uiso   1.00
O277   O     0.00591   0.33333   0.50929   0.00000  Uiso   1.00
O278   O     0.00591   0.33333   0.37610   0.00000  Uiso   1.00
O279   O     0.06667   0.27257   0.50929   0.00000  Uiso   1.00
O280   O     0.06667   0.27257   0.37610   0.00000  Uiso   1.00
O281   O     0.12743   0.39409   0.50929   0.00000  Uiso   1.00
O282   O     0.12743   0.39409   0.37610   0.00000  Uiso   1.00
O283   O     0.12743   0.33333   0.06447   0.00000  Uiso   1.00
O284   O     0.12743   0.33333   0.43842   0.00000  Uiso   1.00
O285   O     0.06667   0.39409   0.06447   0.00000  Uiso   1.00
O286   O     0.06667   0.39409   0.43842   0.00000  Uiso   1.00
O287   O     0.00591   0.27257   0.06447   0.00000  Uiso   1.00
O288   O     0.00591   0.27257   0.43842   0.00000  Uiso   1.00
O289   O     0.13924   0.20000   0.04369   0.00000  Uiso   1.00
O290   O     0.13924   0.20000   0.41765   0.00000  Uiso   1.00
O291   O     0.00000   0.33924   0.04369   0.00000  Uiso   1.00
O292   O     0.00000   0.33924   0.41765   0.00000  Uiso   1.00
O293   O     0.06076   0.26076   0.04369   0.00000  Uiso   1.00
O294   O     0.06076   0.26076   0.41765   0.00000  Uiso   1.00
Cr295  Cr    0.26667   0.33333   0.32601   0.00000  Uiso   1.00
Cr296  Cr    0.33333   0.26667   0.34678   0.00000  Uiso   1.00
Cr297  Cr    0.20000   0.20000   0.34309   0.00000  Uiso   1.00
Cr298  Cr    0.26667   0.33333   0.36386   0.00000  Uiso   1.00
Cr299  Cr    0.20000   0.20000   0.36756   0.00000  Uiso   1.00
Cr300  Cr    0.26667   0.33333   0.01437   0.00000  Uiso   1.00
Cr301  Cr    0.26667   0.33333   0.38833   0.00000  Uiso   1.00
Cr302  Cr    0.33333   0.26667   0.01068   0.00000  Uiso   1.00
Cr303  Cr    0.33333   0.26667   0.38464   0.00000  Uiso   1.00
Cr304  Cr    0.20000   0.20000   0.03146   0.00000  Uiso   1.00
Cr305  Cr    0.20000   0.20000   0.40541   0.00000  Uiso   1.00
Cr306  Cr    0.33333   0.26667   0.03515   0.00000  Uiso   1.00
Cr307  Cr    0.33333   0.26667   0.40911   0.00000  Uiso   1.00
Cr308  Cr    0.20000   0.20000   0.05593   0.00000  Uiso   1.00
Cr309  Cr    0.20000   0.20000   0.42988   0.00000  Uiso   1.00
Cr310  Cr    0.26667   0.33333   0.05223   0.00000  Uiso   1.00
Cr311  Cr    0.26667   0.33333   0.42619   0.00000  Uiso   1.00
Cr312  Cr    0.33333   0.26667   0.07301   0.00000  Uiso   1.00
Cr313  Cr    0.33333   0.26667   0.44697   0.00000  Uiso   1.00
O314   O     0.26076   0.20000   0.35532   0.00000  Uiso   1.00
O315   O     0.20000   0.26076   0.35532   0.00000  Uiso   1.00
O316   O     0.33924   0.33924   0.35532   0.00000  Uiso   1.00
O317   O     0.27257   0.26667   0.33455   0.00000  Uiso   1.00
O318   O     0.33333   0.20591   0.33455   0.00000  Uiso   1.00
O319   O     0.39409   0.32743   0.33455   0.00000  Uiso   1.00
O320   O     0.39409   0.26667   0.02292   0.00000  Uiso   1.00
O321   O     0.39409   0.26667   0.39687   0.00000  Uiso   1.00
O322   O     0.33333   0.32743   0.02292   0.00000  Uiso   1.00
O323   O     0.33333   0.32743   0.39687   0.00000  Uiso   1.00
O324   O     0.27257   0.20591   0.02292   0.00000  Uiso   1.00
O325   O     0.27257   0.20591   0.39687   0.00000  Uiso   1.00
O326   O     0.20591   0.33333   0.50929   0.00000  Uiso   1.00
O327   O     0.20591   0.33333   0.37610   0.00000  Uiso   1.00
O328   O     0.26667   0.27257   0.50929   0.00000  Uiso   1.00
O329   O     0.26667   0.27257   0.37610   0.00000  Uiso   1.00
O330   O     0.32743   0.39409   0.50929   0.00000  Uiso   1.00
O331   O     0.32743   0.39409   0.37610   0.00000  Uiso   1.00
O332   O     0.32743   0.33333   0.06447   0.00000  Uiso   1.00
O333   O     0.32743   0.33333   0.43842   0.00000  Uiso   1.00
O334   O     0.26667   0.39409   0.06447   0.00000  Uiso   1.00
O335   O     0.26667   0.39409   0.43842   0.00000  Uiso   1.00
O336   O     0.20591   0.27257   0.06447   0.00000  Uiso   1.00
O337   O     0.20591   0.27257   0.43842   0.00000  Uiso   1.00
O338   O     0.33924   0.20000   0.04369   0.00000  Uiso   1.00
O339   O     0.33924   0.20000   0.41765   0.00000  Uiso   1.00
O340   O     0.20000   0.33924   0.04369   0.00000  Uiso   1.00
O341   O     0.20000   0.33924   0.41765   0.00000  Uiso   1.00
O342   O     0.26076   0.26076   0.04369   0.00000  Uiso   1.00
O343   O     0.26076   0.26076   0.41765   0.00000  Uiso   1.00
Cr344  Cr    0.46667   0.33333   0.32601   0.00000  Uiso   1.00
Cr345  Cr    0.53333   0.26667   0.34678   0.00000  Uiso   1.00
Cr346  Cr    0.40000   0.20000   0.34309   0.00000  Uiso   1.00
Cr347  Cr    0.46667   0.33333   0.36386   0.00000  Uiso   1.00
Cr348  Cr    0.40000   0.20000   0.36756   0.00000  Uiso   1.00
Cr349  Cr    0.46667   0.33333   0.01437   0.00000  Uiso   1.00
Cr350  Cr    0.46667   0.33333   0.38833   0.00000  Uiso   1.00
Cr351  Cr    0.53333   0.26667   0.01068   0.00000  Uiso   1.00
Cr352  Cr    0.53333   0.26667   0.38464   0.00000  Uiso   1.00
Cr353  Cr    0.40000   0.20000   0.03146   0.00000  Uiso   1.00
Cr354  Cr    0.40000   0.20000   0.40541   0.00000  Uiso   1.00
Cr355  Cr    0.53333   0.26667   0.03515   0.00000  Uiso   1.00
Cr356  Cr    0.53333   0.26667   0.40911   0.00000  Uiso   1.00
Cr357  Cr    0.40000   0.20000   0.05593   0.00000  Uiso   1.00
Cr358  Cr    0.40000   0.20000   0.42988   0.00000  Uiso   1.00
Cr359  Cr    0.46667   0.33333   0.05223   0.00000  Uiso   1.00
Cr360  Cr    0.46667   0.33333   0.42619   0.00000  Uiso   1.00
Cr361  Cr    0.53333   0.26667   0.07301   0.00000  Uiso   1.00
Cr362  Cr    0.53333   0.26667   0.44697   0.00000  Uiso   1.00
O363   O     0.46076   0.20000   0.35532   0.00000  Uiso   1.00
O364   O     0.40000   0.26076   0.35532   0.00000  Uiso   1.00
O365   O     0.53924   0.33924   0.35532   0.00000  Uiso   1.00
O366   O     0.47257   0.26667   0.33455   0.00000  Uiso   1.00
O367   O     0.53333   0.20591   0.33455   0.00000  Uiso   1.00
O368   O     0.59409   0.32743   0.33455   0.00000  Uiso   1.00
O369   O     0.59409   0.26667   0.02292   0.00000  Uiso   1.00
O370   O     0.59409   0.26667   0.39687   0.00000  Uiso   1.00
O371   O     0.53333   0.32743   0.02292   0.00000  Uiso   1.00
O372   O     0.53333   0.32743   0.39687   0.00000  Uiso   1.00
O373   O     0.47257   0.20591   0.02292   0.00000  Uiso   1.00
O374   O     0.47257   0.20591   0.39687   0.00000  Uiso   1.00
O375   O     0.40591   0.33333   0.50929   0.00000  Uiso   1.00
O376   O     0.40591   0.33333   0.37610   0.00000  Uiso   1.00
O377   O     0.46667   0.27257   0.50929   0.00000  Uiso   1.00
O378   O     0.46667   0.27257   0.37610   0.00000  Uiso   1.00
O379   O     0.52743   0.39409   0.50929   0.00000  Uiso   1.00
O380   O     0.52743   0.39409   0.37610   0.00000  Uiso   1.00
O381   O     0.52743   0.33333   0.06447   0.00000  Uiso   1.00
O382   O     0.52743   0.33333   0.43842   0.00000  Uiso   1.00
O383   O     0.46667   0.39409   0.06447   0.00000  Uiso   1.00
O384   O     0.46667   0.39409   0.43842   0.00000  Uiso   1.00
O385   O     0.40591   0.27257   0.06447   0.00000  Uiso   1.00
O386   O     0.40591   0.27257   0.43842   0.00000  Uiso   1.00
O387   O     0.53924   0.20000   0.04369   0.00000  Uiso   1.00
O388   O     0.53924   0.20000   0.41765   0.00000  Uiso   1.00
O389   O     0.40000   0.33924   0.04369   0.00000  Uiso   1.00
O390   O     0.40000   0.33924   0.41765   0.00000  Uiso   1.00
O391   O     0.46076   0.26076   0.04369   0.00000  Uiso   1.00
O392   O     0.46076   0.26076   0.41765   0.00000  Uiso   1.00
Cr393  Cr    0.66667   0.33333   0.32601   0.00000  Uiso   1.00
Cr394  Cr    0.73333   0.26667   0.34678   0.00000  Uiso   1.00
Cr395  Cr    0.60000   0.20000   0.34309   0.00000  Uiso   1.00
Cr396  Cr    0.66667   0.33333   0.36386   0.00000  Uiso   1.00
Cr397  Cr    0.60000   0.20000   0.36756   0.00000  Uiso   1.00
Cr398  Cr    0.66667   0.33333   0.01437   0.00000  Uiso   1.00
Cr399  Cr    0.66667   0.33333   0.38833   0.00000  Uiso   1.00
Cr400  Cr    0.73333   0.26667   0.01068   0.00000  Uiso   1.00
Cr401  Cr    0.73333   0.26667   0.38464   0.00000  Uiso   1.00
Cr402  Cr    0.60000   0.20000   0.03146   0.00000  Uiso   1.00
Cr403  Cr    0.60000   0.20000   0.40541   0.00000  Uiso   1.00
Cr404  Cr    0.73333   0.26667   0.03515   0.00000  Uiso   1.00
Cr405  Cr    0.73333   0.26667   0.40911   0.00000  Uiso   1.00
Cr406  Cr    0.60000   0.20000   0.05593   0.00000  Uiso   1.00
Cr407  Cr    0.60000   0.20000   0.42988   0.00000  Uiso   1.00
Cr408  Cr    0.66667   0.33333   0.05223   0.00000  Uiso   1.00
Cr409  Cr    0.66667   0.33333   0.42619   0.00000  Uiso   1.00
Cr410  Cr    0.73333   0.26667   0.07301   0.00000  Uiso   1.00
Cr411  Cr    0.73333   0.26667   0.44697   0.00000  Uiso   1.00
O412   O     0.66076   0.20000   0.35532   0.00000  Uiso   1.00
O413   O     0.60000   0.26076   0.35532   0.00000  Uiso   1.00
O414   O     0.73924   0.33924   0.35532   0.00000  Uiso   1.00
O415   O     0.67257   0.26667   0.33455   0.00000  Uiso   1.00
O416   O     0.73333   0.20591   0.33455   0.00000  Uiso   1.00
O417   O     0.79409   0.32743   0.33455   0.00000  Uiso   1.00
O418   O     0.79409   0.26667   0.02292   0.00000  Uiso   1.00
O419   O     0.79409   0.26667   0.39687   0.00000  Uiso   1.00
O420   O     0.73333   0.32743   0.02292   0.00000  Uiso   1.00
O421   O     0.73333   0.32743   0.39687   0.00000  Uiso   1.00
O422   O     0.67257   0.20591   0.02292   0.00000  Uiso   1.00
O423   O     0.67257   0.20591   0.39687   0.00000  Uiso   1.00
O424   O     0.60591   0.33333   0.50929   0.00000  Uiso   1.00
O425   O     0.60591   0.33333   0.37610   0.00000  Uiso   1.00
O426   O     0.66667   0.27257   0.50929   0.00000  Uiso   1.00
O427   O     0.66667   0.27257   0.37610   0.00000  Uiso   1.00
O428   O     0.72743   0.39409   0.50929   0.00000  Uiso   1.00
O429   O     0.72743   0.39409   0.37610   0.00000  Uiso   1.00
O430   O     0.72743   0.33333   0.06447   0.00000  Uiso   1.00
O431   O     0.72743   0.33333   0.43842   0.00000  Uiso   1.00
O432   O     0.66667   0.39409   0.06447   0.00000  Uiso   1.00
O433   O     0.66667   0.39409   0.43842   0.00000  Uiso   1.00
O434   O     0.60591   0.27257   0.06447   0.00000  Uiso   1.00
O435   O     0.60591   0.27257   0.43842   0.00000  Uiso   1.00
O436   O     0.73924   0.20000   0.04369   0.00000  Uiso   1.00
O437   O     0.73924   0.20000   0.41765   0.00000  Uiso   1.00
O438   O     0.60000   0.33924   0.04369   0.00000  Uiso   1.00
O439   O     0.60000   0.33924   0.41765   0.00000  Uiso   1.00
O440   O     0.66076   0.26076   0.04369   0.00000  Uiso   1.00
O441   O     0.66076   0.26076   0.41765   0.00000  Uiso   1.00
Cr442  Cr    0.86667   0.33333   0.32601   0.00000  Uiso   1.00
Cr443  Cr    0.93333   0.26667   0.34678   0.00000  Uiso   1.00
Cr444  Cr    0.80000   0.20000   0.34309   0.00000  Uiso   1.00
Cr445  Cr    0.86667   0.33333   0.36386   0.00000  Uiso   1.00
Cr446  Cr    0.80000   0.20000   0.36756   0.00000  Uiso   1.00
Cr447  Cr    0.86667   0.33333   0.01437   0.00000  Uiso   1.00
Cr448  Cr    0.86667   0.33333   0.38833   0.00000  Uiso   1.00
Cr449  Cr    0.93333   0.26667   0.01068   0.00000  Uiso   1.00
Cr450  Cr    0.93333   0.26667   0.38464   0.00000  Uiso   1.00
Cr451  Cr    0.80000   0.20000   0.03146   0.00000  Uiso   1.00
Cr452  Cr    0.80000   0.20000   0.40541   0.00000  Uiso   1.00
Cr453  Cr    0.93333   0.26667   0.03515   0.00000  Uiso   1.00
Cr454  Cr    0.93333   0.26667   0.40911   0.00000  Uiso   1.00
Cr455  Cr    0.80000   0.20000   0.05593   0.00000  Uiso   1.00
Cr456  Cr    0.80000   0.20000   0.42988   0.00000  Uiso   1.00
Cr457  Cr    0.86667   0.33333   0.05223   0.00000  Uiso   1.00
Cr458  Cr    0.86667   0.33333   0.42619   0.00000  Uiso   1.00
Cr459  Cr    0.93333   0.26667   0.07301   0.00000  Uiso   1.00
Cr460  Cr    0.93333   0.26667   0.44697   0.00000  Uiso   1.00
O461   O     0.86076   0.20000   0.35532   0.00000  Uiso   1.00
O462   O     0.80000   0.26076   0.35532   0.00000  Uiso   1.00
O463   O     0.93924   0.33924   0.35532   0.00000  Uiso   1.00
O464   O     0.87257   0.26667   0.33455   0.00000  Uiso   1.00
O465   O     0.93333   0.20591   0.33455   0.00000  Uiso   1.00
O466   O     0.99409   0.32743   0.33455   0.00000  Uiso   1.00
O467   O     0.99409   0.26667   0.02292   0.00000  Uiso   1.00
O468   O     0.99409   0.26667   0.39687   0.00000  Uiso   1.00
O469   O     0.93333   0.32743   0.02292   0.00000  Uiso   1.00
O470   O     0.93333   0.32743   0.39687   0.00000  Uiso   1.00
O471   O     0.87257   0.20591   0.02292   0.00000  Uiso   1.00
O472   O     0.87257   0.20591   0.39687   0.00000  Uiso   1.00
O473   O     0.80591   0.33333   0.50929   0.00000  Uiso   1.00
O474   O     0.80591   0.33333   0.37610   0.00000  Uiso   1.00
O475   O     0.86667   0.27257   0.50929   0.00000  Uiso   1.00
O476   O     0.86667   0.27257   0.37610   0.00000  Uiso   1.00
O477   O     0.92743   0.39409   0.50929   0.00000  Uiso   1.00
O478   O     0.92743   0.39409   0.37610   0.00000  Uiso   1.00
O479   O     0.92743   0.33333   0.06447   0.00000  Uiso   1.00
O480   O     0.92743   0.33333   0.43842   0.00000  Uiso   1.00
O481   O     0.86667   0.39409   0.06447   0.00000  Uiso   1.00
O482   O     0.86667   0.39409   0.43842   0.00000  Uiso   1.00
O483   O     0.80591   0.27257   0.06447   0.00000  Uiso   1.00
O484   O     0.80591   0.27257   0.43842   0.00000  Uiso   1.00
O485   O     0.93924   0.20000   0.04369   0.00000  Uiso   1.00
O486   O     0.93924   0.20000   0.41765   0.00000  Uiso   1.00
O487   O     0.80000   0.33924   0.04369   0.00000  Uiso   1.00
O488   O     0.80000   0.33924   0.41765   0.00000  Uiso   1.00
O489   O     0.86076   0.26076   0.04369   0.00000  Uiso   1.00
O490   O     0.86076   0.26076   0.41765   0.00000  Uiso   1.00
Cr491  Cr    0.06667   0.53333   0.32601   0.00000  Uiso   1.00
Cr492  Cr    0.13333   0.46667   0.34678   0.00000  Uiso   1.00
Cr493  Cr    0.00000   0.40000   0.34309   0.00000  Uiso   1.00
Cr494  Cr    0.06667   0.53333   0.36386   0.00000  Uiso   1.00
Cr495  Cr    0.00000   0.40000   0.36756   0.00000  Uiso   1.00
Cr496  Cr    0.06667   0.53333   0.01437   0.00000  Uiso   1.00
Cr497  Cr    0.06667   0.53333   0.38833   0.00000  Uiso   1.00
Cr498  Cr    0.13333   0.46667   0.01068   0.00000  Uiso   1.00
Cr499  Cr    0.13333   0.46667   0.38464   0.00000  Uiso   1.00
Cr500  Cr    0.00000   0.40000   0.03146   0.00000  Uiso   1.00
Cr501  Cr    0.00000   0.40000   0.40541   0.00000  Uiso   1.00
Cr502  Cr    0.13333   0.46667   0.03515   0.00000  Uiso   1.00
Cr503  Cr    0.13333   0.46667   0.40911   0.00000  Uiso   1.00
Cr504  Cr    0.00000   0.40000   0.05593   0.00000  Uiso   1.00
Cr505  Cr    0.00000   0.40000   0.42988   0.00000  Uiso   1.00
Cr506  Cr    0.06667   0.53333   0.05223   0.00000  Uiso   1.00
Cr507  Cr    0.06667   0.53333   0.42619   0.00000  Uiso   1.00
Cr508  Cr    0.13333   0.46667   0.07301   0.00000  Uiso   1.00
Cr509  Cr    0.13333   0.46667   0.44697   0.00000  Uiso   1.00
O510   O     0.06076   0.40000   0.35532   0.00000  Uiso   1.00
O511   O     0.00000   0.46076   0.35532   0.00000  Uiso   1.00
O512   O     0.13924   0.53924   0.35532   0.00000  Uiso   1.00
O513   O     0.07257   0.46667   0.33455   0.00000  Uiso   1.00
O514   O     0.13333   0.40591   0.33455   0.00000  Uiso   1.00
O515   O     0.19409   0.52743   0.33455   0.00000  Uiso   1.00
O516   O     0.19409   0.46667   0.02292   0.00000  Uiso   1.00
O517   O     0.19409   0.46667   0.39687   0.00000  Uiso   1.00
O518   O     0.13333   0.52743   0.02292   0.00000  Uiso   1.00
O519   O     0.13333   0.52743   0.39687   0.00000  Uiso   1.00
O520   O     0.07257   0.40591   0.02292   0.00000  Uiso   1.00
O521   O     0.07257   0.40591   0.39687   0.00000  Uiso   1.00
O522   O     0.00591   0.53333   0.50929   0.00000  Uiso   1.00
O523   O     0.00591   0.53333   0.37610   0.00000  Uiso   1.00
O524   O     0.06667   0.47257   0.50929   0.00000  Uiso   1.00
O525   O     0.06667   0.47257   0.37610   0.00000  Uiso   1.00
O526   O     0.12743   0.59409   0.50929   0.00000  Uiso   1.00
O527   O     0.12743   0.59409   0.37610   0.00000  Uiso   1.00
O528   O     0.12743   0.53333   0.06447   0.00000  Uiso   1.00
O529   O     0.12743   0.53333   0.43842   0.00000  Uiso   1.00
O530   O     0.06667   0.59409   0.06447   0.00000  Uiso   1.00
O531   O     0.06667   0.59409   0.43842   0.00000  Uiso   1.00
O532   O     0.00591   0.47257   0.06447   0.00000  Uiso   1.00
O533   O     0.00591   0.47257   0.43842   0.00000  Uiso   1.00
O534   O     0.13924   0.40000   0.04369   0.00000  Uiso   1.00
O535   O     0.13924   0.40000   0.41765   0.00000  Uiso   1.00
O536   O     0.00000   0.53924   0.04369   0.00000  Uiso   1.00
O537   O     0.00000   0.53924   0.41765   0.00000  Uiso   1.00
O538   O     0.06076   0.46076   0.04369   0.00000  Uiso   1.00
O539   O     0.06076   0.46076   0.41765   0.00000  Uiso   1.00
Cr540  Cr    0.26667   0.53333   0.32601   0.00000  Uiso   1.00
Cr541  Cr    0.33333   0.46667   0.34678   0.00000  Uiso   1.00
Cr542  Cr    0.20000   0.40000   0.34309   0.00000  Uiso   1.00
Cr543  Cr    0.26667   0.53333   0.36386   0.00000  Uiso   1.00
Cr544  Cr    0.20000   0.40000   0.36756   0.00000  Uiso   1.00
Cr545  Cr    0.26667   0.53333   0.01437   0.00000  Uiso   1.00
Cr546  Cr    0.26667   0.53333   0.38833   0.00000  Uiso   1.00
Cr547  Cr    0.33333   0.46667   0.01068   0.00000  Uiso   1.00
Cr548  Cr    0.33333   0.46667   0.38464   0.00000  Uiso   1.00
Cr549  Cr    0.20000   0.40000   0.03146   0.00000  Uiso   1.00
Cr550  Cr    0.20000   0.40000   0.40541   0.00000  Uiso   1.00
Cr551  Cr    0.33333   0.46667   0.03515   0.00000  Uiso   1.00
Cr552  Cr    0.33333   0.46667   0.40911   0.00000  Uiso   1.00
Cr553  Cr    0.20000   0.40000   0.05593   0.00000  Uiso   1.00
Cr554  Cr    0.20000   0.40000   0.42988   0.00000  Uiso   1.00
Cr555  Cr    0.26667   0.53333   0.05223   0.00000  Uiso   1.00
Cr556  Cr    0.26667   0.53333   0.42619   0.00000  Uiso   1.00
Cr557  Cr    0.33333   0.46667   0.07301   0.00000  Uiso   1.00
Cr558  Cr    0.33333   0.46667   0.44697   0.00000  Uiso   1.00
O559   O     0.26076   0.40000   0.35532   0.00000  Uiso   1.00
O560   O     0.20000   0.46076   0.35532   0.00000  Uiso   1.00
O561   O     0.33924   0.53924   0.35532   0.00000  Uiso   1.00
O562   O     0.27257   0.46667   0.33455   0.00000  Uiso   1.00
O563   O     0.33333   0.40591   0.33455   0.00000  Uiso   1.00
O564   O     0.39409   0.52743   0.33455   0.00000  Uiso   1.00
O565   O     0.39409   0.46667   0.02292   0.00000  Uiso   1.00
O566   O     0.39409   0.46667   0.39687   0.00000  Uiso   1.00
O567   O     0.33333   0.52743   0.02292   0.00000  Uiso   1.00
O568   O     0.33333   0.52743   0.39687   0.00000  Uiso   1.00
O569   O     0.27257   0.40591   0.02292   0.00000  Uiso   1.00
O570   O     0.27257   0.40591   0.39687   0.00000  Uiso   1.00
O571   O     0.20591   0.53333   0.50929   0.00000  Uiso   1.00
O572   O     0.20591   0.53333   0.37610   0.00000  Uiso   1.00
O573   O     0.26667   0.47257   0.50929   0.00000  Uiso   1.00
O574   O     0.26667   0.47257   0.37610   0.00000  Uiso   1.00
O575   O     0.32743   0.59409   0.50929   0.00000  Uiso   1.00
O576   O     0.32743   0.59409   0.37610   0.00000  Uiso   1.00
O577   O     0.32743   0.53333   0.06447   0.00000  Uiso   1.00
O578   O     0.32743   0.53333   0.43842   0.00000  Uiso   1.00
O579   O     0.26667   0.59409   0.06447   0.00000  Uiso   1.00
O580   O     0.26667   0.59409   0.43842   0.00000  Uiso   1.00
O581   O     0.20591   0.47257   0.06447   0.00000  Uiso   1.00
O582   O     0.20591   0.47257   0.43842   0.00000  Uiso   1.00
O583   O     0.33924   0.40000   0.04369   0.00000  Uiso   1.00
O584   O     0.33924   0.40000   0.41765   0.00000  Uiso   1.00
O585   O     0.20000   0.53924   0.04369   0.00000  Uiso   1.00
O586   O     0.20000   0.53924   0.41765   0.00000  Uiso   1.00
O587   O     0.26076   0.46076   0.04369   0.00000  Uiso   1.00
O588   O     0.26076   0.46076   0.41765   0.00000  Uiso   1.00
Cr589  Cr    0.46667   0.53333   0.32601   0.00000  Uiso   1.00
Cr590  Cr    0.53333   0.46667   0.34678   0.00000  Uiso   1.00
Cr591  Cr    0.40000   0.40000   0.34309   0.00000  Uiso   1.00
Cr592  Cr    0.46667   0.53333   0.36386   0.00000  Uiso   1.00
Cr593  Cr    0.40000   0.40000   0.36756   0.00000  Uiso   1.00
Cr594  Cr    0.46667   0.53333   0.01437   0.00000  Uiso   1.00
Cr595  Cr    0.46667   0.53333   0.38833   0.00000  Uiso   1.00
Cr596  Cr    0.53333   0.46667   0.01068   0.00000  Uiso   1.00
Cr597  Cr    0.53333   0.46667   0.38464   0.00000  Uiso   1.00
Cr598  Cr    0.40000   0.40000   0.03146   0.00000  Uiso   1.00
Cr599  Cr    0.40000   0.40000   0.40541   0.00000  Uiso   1.00
Cr600  Cr    0.53333   0.46667   0.03515   0.00000  Uiso   1.00
Cr601  Cr    0.53333   0.46667   0.40911   0.00000  Uiso   1.00
Cr602  Cr    0.40000   0.40000   0.05593   0.00000  Uiso   1.00
Cr603  Cr    0.40000   0.40000   0.42988   0.00000  Uiso   1.00
Cr604  Cr    0.46667   0.53333   0.05223   0.00000  Uiso   1.00
Cr605  Cr    0.46667   0.53333   0.42619   0.00000  Uiso   1.00
Cr606  Cr    0.53333   0.46667   0.07301   0.00000  Uiso   1.00
Cr607  Cr    0.53333   0.46667   0.44697   0.00000  Uiso   1.00
O608   O     0.46076   0.40000   0.35532   0.00000  Uiso   1.00
O609   O     0.40000   0.46076   0.35532   0.00000  Uiso   1.00
O610   O     0.53924   0.53924   0.35532   0.00000  Uiso   1.00
O611   O     0.47257   0.46667   0.33455   0.00000  Uiso   1.00
O612   O     0.53333   0.40591   0.33455   0.00000  Uiso   1.00
O613   O     0.59409   0.52743   0.33455   0.00000  Uiso   1.00
O614   O     0.59409   0.46667   0.02292   0.00000  Uiso   1.00
O615   O     0.59409   0.46667   0.39687   0.00000  Uiso   1.00
O616   O     0.53333   0.52743   0.02292   0.00000  Uiso   1.00
O617   O     0.53333   0.52743   0.39687   0.00000  Uiso   1.00
O618   O     0.47257   0.40591   0.02292   0.00000  Uiso   1.00
O619   O     0.47257   0.40591   0.39687   0.00000  Uiso   1.00
O620   O     0.40591   0.53333   0.50929   0.00000  Uiso   1.00
O621   O     0.40591   0.53333   0.37610   0.00000  Uiso   1.00
O622   O     0.46667   0.47257   0.50929   0.00000  Uiso   1.00
O623   O     0.46667   0.47257   0.37610   0.00000  Uiso   1.00
O624   O     0.52743   0.59409   0.50929   0.00000  Uiso   1.00
O625   O     0.52743   0.59409   0.37610   0.00000  Uiso   1.00
O626   O     0.52743   0.53333   0.06447   0.00000  Uiso   1.00
O627   O     0.52743   0.53333   0.43842   0.00000  Uiso   1.00
O628   O     0.46667   0.59409   0.06447   0.00000  Uiso   1.00
O629   O     0.46667   0.59409   0.43842   0.00000  Uiso   1.00
O630   O     0.40591   0.47257   0.06447   0.00000  Uiso   1.00
O631   O     0.40591   0.47257   0.43842   0.00000  Uiso   1.00
O632   O     0.53924   0.40000   0.04369   0.00000  Uiso   1.00
O633   O     0.53924   0.40000   0.41765   0.00000  Uiso   1.00
O634   O     0.40000   0.53924   0.04369   0.00000  Uiso   1.00
O635   O     0.40000   0.53924   0.41765   0.00000  Uiso   1.00
O636   O     0.46076   0.46076   0.04369   0.00000  Uiso   1.00
O637   O     0.46076   0.46076   0.41765   0.00000  Uiso   1.00
Cr638  Cr    0.66667   0.53333   0.32601   0.00000  Uiso   1.00
Cr639  Cr    0.73333   0.46667   0.34678   0.00000  Uiso   1.00
Cr640  Cr    0.60000   0.40000   0.34309   0.00000  Uiso   1.00
Cr641  Cr    0.66667   0.53333   0.36386   0.00000  Uiso   1.00
Cr642  Cr    0.60000   0.40000   0.36756   0.00000  Uiso   1.00
Cr643  Cr    0.66667   0.53333   0.01437   0.00000  Uiso   1.00
Cr644  Cr    0.66667   0.53333   0.38833   0.00000  Uiso   1.00
Cr645  Cr    0.73333   0.46667   0.01068   0.00000  Uiso   1.00
Cr646  Cr    0.73333   0.46667   0.38464   0.00000  Uiso   1.00
Cr647  Cr    0.60000   0.40000   0.03146   0.00000  Uiso   1.00
Cr648  Cr    0.60000   0.40000   0.40541   0.00000  Uiso   1.00
Cr649  Cr    0.73333   0.46667   0.03515   0.00000  Uiso   1.00
Cr650  Cr    0.73333   0.46667   0.40911   0.00000  Uiso   1.00
Cr651  Cr    0.60000   0.40000   0.05593   0.00000  Uiso   1.00
Cr652  Cr    0.60000   0.40000   0.42988   0.00000  Uiso   1.00
Cr653  Cr    0.66667   0.53333   0.05223   0.00000  Uiso   1.00
Cr654  Cr    0.66667   0.53333   0.42619   0.00000  Uiso   1.00
Cr655  Cr    0.73333   0.46667   0.07301   0.00000  Uiso   1.00
Cr656  Cr    0.73333   0.46667   0.44697   0.00000  Uiso   1.00
O657   O     0.66076   0.40000   0.35532   0.00000  Uiso   1.00
O658   O     0.60000   0.46076   0.35532   0.00000  Uiso   1.00
O659   O     0.73924   0.53924   0.35532   0.00000  Uiso   1.00
O660   O     0.67257   0.46667   0.33455   0.00000  Uiso   1.00
O661   O     0.73333   0.40591   0.33455   0.00000  Uiso   1.00
O662   O     0.79409   0.52743   0.33455   0.00000  Uiso   1.00
O663   O     0.79409   0.46667   0.02292   0.00000  Uiso   1.00
O664   O     0.79409   0.46667   0.39687   0.00000  Uiso   1.00
O665   O     0.73333   0.52743   0.02292   0.00000  Uiso   1.00
O666   O     0.73333   0.52743   0.39687   0.00000  Uiso   1.00
O667   O     0.67257   0.40591   0.02292   0.00000  Uiso   1.00
O668   O     0.67257   0.40591   0.39687   0.00000  Uiso   1.00
O669   O     0.60591   0.53333   0.50929   0.00000  Uiso   1.00
O670   O     0.60591   0.53333   0.37610   0.00000  Uiso   1.00
O671   O     0.66667   0.47257   0.50929   0.00000  Uiso   1.00
O672   O     0.66667   0.47257   0.37610   0.00000  Uiso   1.00
O673   O     0.72743   0.59409   0.50929   0.00000  Uiso   1.00
O674   O     0.72743   0.59409   0.37610   0.00000  Uiso   1.00
O675   O     0.72743   0.53333   0.06447   0.00000  Uiso   1.00
O676   O     0.72743   0.53333   0.43842   0.00000  Uiso   1.00
O677   O     0.66667   0.59409   0.06447   0.00000  Uiso   1.00
O678   O     0.66667   0.59409   0.43842   0.00000  Uiso   1.00
O679   O     0.60591   0.47257   0.06447   0.00000  Uiso   1.00
O680   O     0.60591   0.47257   0.43842   0.00000  Uiso   1.00
O681   O     0.73924   0.40000   0.04369   0.00000  Uiso   1.00
O682   O     0.73924   0.40000   0.41765   0.00000  Uiso   1.00
O683   O     0.60000   0.53924   0.04369   0.00000  Uiso   1.00
O684   O     0.60000   0.53924   0.41765   0.00000  Uiso   1.00
O685   O     0.66076   0.46076   0.04369   0.00000  Uiso   1.00
O686   O     0.66076   0.46076   0.41765   0.00000  Uiso   1.00
Cr687  Cr    0.86667   0.53333   0.32601   0.00000  Uiso   1.00
Cr688  Cr    0.93333   0.46667   0.34678   0.00000  Uiso   1.00
Cr689  Cr    0.80000   0.40000   0.34309   0.00000  Uiso   1.00
Cr690  Cr    0.86667   0.53333   0.36386   0.00000  Uiso   1.00
Cr691  Cr    0.80000   0.40000   0.36756   0.00000  Uiso   1.00
Cr692  Cr    0.86667   0.53333   0.01437   0.00000  Uiso   1.00
Cr693  Cr    0.86667   0.53333   0.38833   0.00000  Uiso   1.00
Cr694  Cr    0.93333   0.46667   0.01068   0.00000  Uiso   1.00
Cr695  Cr    0.93333   0.46667   0.38464   0.00000  Uiso   1.00
Cr696  Cr    0.80000   0.40000   0.03146   0.00000  Uiso   1.00
Cr697  Cr    0.80000   0.40000   0.40541   0.00000  Uiso   1.00
Cr698  Cr    0.93333   0.46667   0.03515   0.00000  Uiso   1.00
Cr699  Cr    0.93333   0.46667   0.40911   0.00000  Uiso   1.00
Cr700  Cr    0.80000   0.40000   0.05593   0.00000  Uiso   1.00
Cr701  Cr    0.80000   0.40000   0.42988   0.00000  Uiso   1.00
Cr702  Cr    0.86667   0.53333   0.05223   0.00000  Uiso   1.00
Cr703  Cr    0.86667   0.53333   0.42619   0.00000  Uiso   1.00
Cr704  Cr    0.93333   0.46667   0.07301   0.00000  Uiso   1.00
Cr705  Cr    0.93333   0.46667   0.44697   0.00000  Uiso   1.00
O706   O     0.86076   0.40000   0.35532   0.00000  Uiso   1.00
O707   O     0.80000   0.46076   0.35532   0.00000  Uiso   1.00
O708   O     0.93924   0.53924   0.35532   0.00000  Uiso   1.00
O709   O     0.87257   0.46667   0.33455   0.00000  Uiso   1.00
O710   O     0.93333   0.40591   0.33455   0.00000  Uiso   1.00
O711   O     0.99409   0.52743   0.33455   0.00000  Uiso   1.00
O712   O     0.99409   0.46667   0.02292   0.00000  Uiso   1.00
O713   O     0.99409   0.46667   0.39687   0.00000  Uiso   1.00
O714   O     0.93333   0.52743   0.02292   0.00000  Uiso   1.00
O715   O     0.93333   0.52743   0.39687   0.00000  Uiso   1.00
O716   O     0.87257   0.40591   0.02292   0.00000  Uiso   1.00
O717   O     0.87257   0.40591   0.39687   0.00000  Uiso   1.00
O718   O     0.80591   0.53333   0.50929   0.00000  Uiso   1.00
O719   O     0.80591   0.53333   0.37610   0.00000  Uiso   1.00
O720   O     0.86667   0.47257   0.50929   0.00000  Uiso   1.00
O721   O     0.86667   0.47257   0.37610   0.00000  Uiso   1.00
O722   O     0.92743   0.59409   0.50929   0.00000  Uiso   1.00
O723   O     0.92743   0.59409   0.37610   0.00000  Uiso   1.00
O724   O     0.92743   0.53333   0.06447   0.00000  Uiso   1.00
O725   O     0.92743   0.53333   0.43842   0.00000  Uiso   1.00
O726   O     0.86667   0.59409   0.06447   0.00000  Uiso   1.00
O727   O     0.86667   0.59409   0.43842   0.00000  Uiso   1.00
O728   O     0.80591   0.47257   0.06447   0.00000  Uiso   1.00
O729   O     0.80591   0.47257   0.43842   0.00000  Uiso   1.00
O730   O     0.93924   0.40000   0.04369   0.00000  Uiso   1.00
O731   O     0.93924   0.40000   0.41765   0.00000  Uiso   1.00
O732   O     0.80000   0.53924   0.04369   0.00000  Uiso   1.00
O733   O     0.80000   0.53924   0.41765   0.00000  Uiso   1.00
O734   O     0.86076   0.46076   0.04369   0.00000  Uiso   1.00
O735   O     0.86076   0.46076   0.41765   0.00000  Uiso   1.00
Cr736  Cr    0.06667   0.73333   0.32601   0.00000  Uiso   1.00
Cr737  Cr    0.13333   0.66667   0.34678   0.00000  Uiso   1.00
Cr738  Cr    0.00000   0.60000   0.34309   0.00000  Uiso   1.00
Cr739  Cr    0.06667   0.73333   0.36386   0.00000  Uiso   1.00
Cr740  Cr    0.00000   0.60000   0.36756   0.00000  Uiso   1.00
Cr741  Cr    0.06667   0.73333   0.01437   0.00000  Uiso   1.00
Cr742  Cr    0.06667   0.73333   0.38833   0.00000  Uiso   1.00
Cr743  Cr    0.13333   0.66667   0.01068   0.00000  Uiso   1.00
Cr744  Cr    0.13333   0.66667   0.38464   0.00000  Uiso   1.00
Cr745  Cr    0.00000   0.60000   0.03146   0.00000  Uiso   1.00
Cr746  Cr    0.00000   0.60000   0.40541   0.00000  Uiso   1.00
Cr747  Cr    0.13333   0.66667   0.03515   0.00000  Uiso   1.00
Cr748  Cr    0.13333   0.66667   0.40911   0.00000  Uiso   1.00
Cr749  Cr    0.00000   0.60000   0.05593   0.00000  Uiso   1.00
Cr750  Cr    0.00000   0.60000   0.42988   0.00000  Uiso   1.00
Cr751  Cr    0.06667   0.73333   0.05223   0.00000  Uiso   1.00
Cr752  Cr    0.06667   0.73333   0.42619   0.00000  Uiso   1.00
Cr753  Cr    0.13333   0.66667   0.07301   0.00000  Uiso   1.00
Cr754  Cr    0.13333   0.66667   0.44697   0.00000  Uiso   1.00
O755   O     0.06076   0.60000   0.35532   0.00000  Uiso   1.00
O756   O     0.00000   0.66076   0.35532   0.00000  Uiso   1.00
O757   O     0.13924   0.73924   0.35532   0.00000  Uiso   1.00
O758   O     0.07257   0.66667   0.33455   0.00000  Uiso   1.00
O759   O     0.13333   0.60591   0.33455   0.00000  Uiso   1.00
O760   O     0.19409   0.72743   0.33455   0.00000  Uiso   1.00
O761   O     0.19409   0.66667   0.02292   0.00000  Uiso   1.00
O762   O     0.19409   0.66667   0.39687   0.00000  Uiso   1.00
O763   O     0.13333   0.72743   0.02292   0.00000  Uiso   1.00
O764   O     0.13333   0.72743   0.39687   0.00000  Uiso   1.00
O765   O     0.07257   0.60591   0.02292   0.00000  Uiso   1.00
O766   O     0.07257   0.60591   0.39687   0.00000  Uiso   1.00
O767   O     0.00591   0.73333   0.50929   0.00000  Uiso   1.00
O768   O     0.00591   0.73333   0.37610   0.00000  Uiso   1.00
O769   O     0.06667   0.67257   0.50929   0.00000  Uiso   1.00
O770   O     0.06667   0.67257   0.37610   0.00000  Uiso   1.00
O771   O     0.12743   0.79409   0.50929   0.00000  Uiso   1.00
O772   O     0.12743   0.79409   0.37610   0.00000  Uiso   1.00
O773   O     0.12743   0.73333   0.06447   0.00000  Uiso   1.00
O774   O     0.12743   0.73333   0.43842   0.00000  Uiso   1.00
O775   O     0.06667   0.79409   0.06447   0.00000  Uiso   1.00
O776   O     0.06667   0.79409   0.43842   0.00000  Uiso   1.00
O777   O     0.00591   0.67257   0.06447   0.00000  Uiso   1.00
O778   O     0.00591   0.67257   0.43842   0.00000  Uiso   1.00
O779   O     0.13924   0.60000   0.04369   0.00000  Uiso   1.00
O780   O     0.13924   0.60000   0.41765   0.00000  Uiso   1.00
O781   O     0.00000   0.73924   0.04369   0.00000  Uiso   1.00
O782   O     0.00000   0.73924   0.41765   0.00000  Uiso   1.00
O783   O     0.06076   0.66076   0.04369   0.00000  Uiso   1.00
O784   O     0.06076   0.66076   0.41765   0.00000  Uiso   1.00
Cr785  Cr    0.26667   0.73333   0.32601   0.00000  Uiso   1.00
Cr786  Cr    0.33333   0.66667   0.34678   0.00000  Uiso   1.00
Cr787  Cr    0.20000   0.60000   0.34309   0.00000  Uiso   1.00
Cr788  Cr    0.26667   0.73333   0.36386   0.00000  Uiso   1.00
Cr789  Cr    0.20000   0.60000   0.36756   0.00000  Uiso   1.00
Cr790  Cr    0.26667   0.73333   0.01437   0.00000  Uiso   1.00
Cr791  Cr    0.26667   0.73333   0.38833   0.00000  Uiso   1.00
Cr792  Cr    0.33333   0.66667   0.01068   0.00000  Uiso   1.00
Cr793  Cr    0.33333   0.66667   0.38464   0.00000  Uiso   1.00
Cr794  Cr    0.20000   0.60000   0.03146   0.00000  Uiso   1.00
Cr795  Cr    0.20000   0.60000   0.40541   0.00000  Uiso   1.00
Cr796  Cr    0.33333   0.66667   0.03515   0.00000  Uiso   1.00
Cr797  Cr    0.33333   0.66667   0.40911   0.00000  Uiso   1.00
Cr798  Cr    0.20000   0.60000   0.05593   0.00000  Uiso   1.00
Cr799  Cr    0.20000   0.60000   0.42988   0.00000  Uiso   1.00
Cr800  Cr    0.26667   0.73333   0.05223   0.00000  Uiso   1.00
Cr801  Cr    0.26667   0.73333   0.42619   0.00000  Uiso   1.00
Cr802  Cr    0.33333   0.66667   0.07301   0.00000  Uiso   1.00
Cr803  Cr    0.33333   0.66667   0.44697   0.00000  Uiso   1.00
O804   O     0.26076   0.60000   0.35532   0.00000  Uiso   1.00
O805   O     0.20000   0.66076   0.35532   0.00000  Uiso   1.00
O806   O     0.33924   0.73924   0.35532   0.00000  Uiso   1.00
O807   O     0.27257   0.66667   0.33455   0.00000  Uiso   1.00
O808   O     0.33333   0.60591   0.33455   0.00000  Uiso   1.00
O809   O     0.39409   0.72743   0.33455   0.00000  Uiso   1.00
O810   O     0.39409   0.66667   0.02292   0.00000  Uiso   1.00
O811   O     0.39409   0.66667   0.39687   0.00000  Uiso   1.00
O812   O     0.33333   0.72743   0.02292   0.00000  Uiso   1.00
O813   O     0.33333   0.72743   0.39687   0.00000  Uiso   1.00
O814   O     0.27257   0.60591   0.02292   0.00000  Uiso   1.00
O815   O     0.27257   0.60591   0.39687   0.00000  Uiso   1.00
O816   O     0.20591   0.73333   0.50929   0.00000  Uiso   1.00
O817   O     0.20591   0.73333   0.37610   0.00000  Uiso   1.00
O818   O     0.26667   0.67257   0.50929   0.00000  Uiso   1.00
O819   O     0.26667   0.67257   0.37610   0.00000  Uiso   1.00
O820   O     0.32743   0.79409   0.50929   0.00000  Uiso   1.00
O821   O     0.32743   0.79409   0.37610   0.00000  Uiso   1.00
O822   O     0.32743   0.73333   0.06447   0.00000  Uiso   1.00
O823   O     0.32743   0.73333   0.43842   0.00000  Uiso   1.00
O824   O     0.26667   0.79409   0.06447   0.00000  Uiso   1.00
O825   O     0.26667   0.79409   0.43842   0.00000  Uiso   1.00
O826   O     0.20591   0.67257   0.06447   0.00000  Uiso   1.00
O827   O     0.20591   0.67257   0.43842   0.00000  Uiso   1.00
O828   O     0.33924   0.60000   0.04369   0.00000  Uiso   1.00
O829   O     0.33924   0.60000   0.41765   0.00000  Uiso   1.00
O830   O     0.20000   0.73924   0.04369   0.00000  Uiso   1.00
O831   O     0.20000   0.73924   0.41765   0.00000  Uiso   1.00
O832   O     0.26076   0.66076   0.04369   0.00000  Uiso   1.00
O833   O     0.26076   0.66076   0.41765   0.00000  Uiso   1.00
Cr834  Cr    0.46667   0.73333   0.32601   0.00000  Uiso   1.00
Cr835  Cr    0.53333   0.66667   0.34678   0.00000  Uiso   1.00
Cr836  Cr    0.40000   0.60000   0.34309   0.00000  Uiso   1.00
Cr837  Cr    0.46667   0.73333   0.36386   0.00000  Uiso   1.00
Cr838  Cr    0.40000   0.60000   0.36756   0.00000  Uiso   1.00
Cr839  Cr    0.46667   0.73333   0.01437   0.00000  Uiso   1.00
Cr840  Cr    0.46667   0.73333   0.38833   0.00000  Uiso   1.00
Cr841  Cr    0.53333   0.66667   0.01068   0.00000  Uiso   1.00
Cr842  Cr    0.53333   0.66667   0.38464   0.00000  Uiso   1.00
Cr843  Cr    0.40000   0.60000   0.03146   0.00000  Uiso   1.00
Cr844  Cr    0.40000   0.60000   0.40541   0.00000  Uiso   1.00
Cr845  Cr    0.53333   0.66667   0.03515   0.00000  Uiso   1.00
Cr846  Cr    0.53333   0.66667   0.40911   0.00000  Uiso   1.00
Cr847  Cr    0.40000   0.60000   0.05593   0.00000  Uiso   1.00
Cr848  Cr    0.40000   0.60000   0.42988   0.00000  Uiso   1.00
Cr849  Cr    0.46667   0.73333   0.05223   0.00000  Uiso   1.00
Cr850  Cr    0.46667   0.73333   0.42619   0.00000  Uiso   1.00
Cr851  Cr    0.53333   0.66667   0.07301   0.00000  Uiso   1.00
Cr852  Cr    0.53333   0.66667   0.44697   0.00000  Uiso   1.00
O853   O     0.46076   0.60000   0.35532   0.00000  Uiso   1.00
O854   O     0.40000   0.66076   0.35532   0.00000  Uiso   1.00
O855   O     0.53924   0.73924   0.35532   0.00000  Uiso   1.00
O856   O     0.47257   0.66667   0.33455   0.00000  Uiso   1.00
O857   O     0.53333   0.60591   0.33455   0.00000  Uiso   1.00
O858   O     0.59409   0.72743   0.33455   0.00000  Uiso   1.00
O859   O     0.59409   0.66667   0.02292   0.00000  Uiso   1.00
O860   O     0.59409   0.66667   0.39687   0.00000  Uiso   1.00
O861   O     0.53333   0.72743   0.02292   0.00000  Uiso   1.00
O862   O     0.53333   0.72743   0.39687   0.00000  Uiso   1.00
O863   O     0.47257   0.60591   0.02292   0.00000  Uiso   1.00
O864   O     0.47257   0.60591   0.39687   0.00000  Uiso   1.00
O865   O     0.40591   0.73333   0.50929   0.00000  Uiso   1.00
O866   O     0.40591   0.73333   0.37610   0.00000  Uiso   1.00
O867   O     0.46667   0.67257   0.50929   0.00000  Uiso   1.00
O868   O     0.46667   0.67257   0.37610   0.00000  Uiso   1.00
O869   O     0.52743   0.79409   0.50929   0.00000  Uiso   1.00
O870   O     0.52743   0.79409   0.37610   0.00000  Uiso   1.00
O871   O     0.52743   0.73333   0.06447   0.00000  Uiso   1.00
O872   O     0.52743   0.73333   0.43842   0.00000  Uiso   1.00
O873   O     0.46667   0.79409   0.06447   0.00000  Uiso   1.00
O874   O     0.46667   0.79409   0.43842   0.00000  Uiso   1.00
O875   O     0.40591   0.67257   0.06447   0.00000  Uiso   1.00
O876   O     0.40591   0.67257   0.43842   0.00000  Uiso   1.00
O877   O     0.53924   0.60000   0.04369   0.00000  Uiso   1.00
O878   O     0.53924   0.60000   0.41765   0.00000  Uiso   1.00
O879   O     0.40000   0.73924   0.04369   0.00000  Uiso   1.00
O880   O     0.40000   0.73924   0.41765   0.00000  Uiso   1.00
O881   O     0.46076   0.66076   0.04369   0.00000  Uiso   1.00
O882   O     0.46076   0.66076   0.41765   0.00000  Uiso   1.00
Cr883  Cr    0.66667   0.73333   0.32601   0.00000  Uiso   1.00
Cr884  Cr    0.73333   0.66667   0.34678   0.00000  Uiso   1.00
Cr885  Cr    0.60000   0.60000   0.34309   0.00000  Uiso   1.00
Cr886  Cr    0.66667   0.73333   0.36386   0.00000  Uiso   1.00
Cr887  Cr    0.60000   0.60000   0.36756   0.00000  Uiso   1.00
Cr888  Cr    0.66667   0.73333   0.01437   0.00000  Uiso   1.00
Cr889  Cr    0.66667   0.73333   0.38833   0.00000  Uiso   1.00
Cr890  Cr    0.73333   0.66667   0.01068   0.00000  Uiso   1.00
Cr891  Cr    0.73333   0.66667   0.38464   0.00000  Uiso   1.00
Cr892  Cr    0.60000   0.60000   0.03146   0.00000  Uiso   1.00
Cr893  Cr    0.60000   0.60000   0.40541   0.00000  Uiso   1.00
Cr894  Cr    0.73333   0.66667   0.03515   0.00000  Uiso   1.00
Cr895  Cr    0.73333   0.66667   0.40911   0.00000  Uiso   1.00
Cr896  Cr    0.60000   0.60000   0.05593   0.00000  Uiso   1.00
Cr897  Cr    0.60000   0.60000   0.42988   0.00000  Uiso   1.00
Cr898  Cr    0.66667   0.73333   0.05223   0.00000  Uiso   1.00
Cr899  Cr    0.66667   0.73333   0.42619   0.00000  Uiso   1.00
Cr900  Cr    0.73333   0.66667   0.07301   0.00000  Uiso   1.00
Cr901  Cr    0.73333   0.66667   0.44697   0.00000  Uiso   1.00
O902   O     0.66076   0.60000   0.35532   0.00000  Uiso   1.00
O903   O     0.60000   0.66076   0.35532   0.00000  Uiso   1.00
O904   O     0.73924   0.73924   0.35532   0.00000  Uiso   1.00
O905   O     0.67257   0.66667   0.33455   0.00000  Uiso   1.00
O906   O     0.73333   0.60591   0.33455   0.00000  Uiso   1.00
O907   O     0.79409   0.72743   0.33455   0.00000  Uiso   1.00
O908   O     0.79409   0.66667   0.02292   0.00000  Uiso   1.00
O909   O     0.79409   0.66667   0.39687   0.00000  Uiso   1.00
O910   O     0.73333   0.72743   0.02292   0.00000  Uiso   1.00
O911   O     0.73333   0.72743   0.39687   0.00000  Uiso   1.00
O912   O     0.67257   0.60591   0.02292   0.00000  Uiso   1.00
O913   O     0.67257   0.60591   0.39687   0.00000  Uiso   1.00
O914   O     0.60591   0.73333   0.50929   0.00000  Uiso   1.00
O915   O     0.60591   0.73333   0.37610   0.00000  Uiso   1.00
O916   O     0.66667   0.67257   0.50929   0.00000  Uiso   1.00
O917   O     0.66667   0.67257   0.37610   0.00000  Uiso   1.00
O918   O     0.72743   0.79409   0.50929   0.00000  Uiso   1.00
O919   O     0.72743   0.79409   0.37610   0.00000  Uiso   1.00
O920   O     0.72743   0.73333   0.06447   0.00000  Uiso   1.00
O921   O     0.72743   0.73333   0.43842   0.00000  Uiso   1.00
O922   O     0.66667   0.79409   0.06447   0.00000  Uiso   1.00
O923   O     0.66667   0.79409   0.43842   0.00000  Uiso   1.00
O924   O     0.60591   0.67257   0.06447   0.00000  Uiso   1.00
O925   O     0.60591   0.67257   0.43842   0.00000  Uiso   1.00
O926   O     0.73924   0.60000   0.04369   0.00000  Uiso   1.00
O927   O     0.73924   0.60000   0.41765   0.00000  Uiso   1.00
O928   O     0.60000   0.73924   0.04369   0.00000  Uiso   1.00
O929   O     0.60000   0.73924   0.41765   0.00000  Uiso   1.00
O930   O     0.66076   0.66076   0.04369   0.00000  Uiso   1.00
O931   O     0.66076   0.66076   0.41765   0.00000  Uiso   1.00
Cr932  Cr    0.86667   0.73333   0.32601   0.00000  Uiso   1.00
Cr933  Cr    0.93333   0.66667   0.34678   0.00000  Uiso   1.00
Cr934  Cr    0.80000   0.60000   0.34309   0.00000  Uiso   1.00
Cr935  Cr    0.86667   0.73333   0.36386   0.00000  Uiso   1.00
Cr936  Cr    0.80000   0.60000   0.36756   0.00000  Uiso   1.00
Cr937  Cr    0.86667   0.73333   0.01437   0.00000  Uiso   1.00
Cr938  Cr    0.86667   0.73333   0.38833   0.00000  Uiso   1.00
Cr939  Cr    0.93333   0.66667   0.01068   0.00000  Uiso   1.00
Cr940  Cr    0.93333   0.66667   0.38464   0.00000  Uiso   1.00
Cr941  Cr    0.80000   0.60000   0.03146   0.00000  Uiso   1.00
Cr942  Cr    0.80000   0.60000   0.40541   0.00000  Uiso   1.00
Cr943  Cr    0.93333   0.66667   0.03515   0.00000  Uiso   1.00
Cr944  Cr    0.93333   0.66667   0.40911   0.00000  Uiso   1.00
Cr945  Cr    0.80000   0.60000   0.05593   0.00000  Uiso   1.00
Cr946  Cr    0.80000   0.60000   0.42988   0.00000  Uiso   1.00
Cr947  Cr    0.86667   0.73333   0.05223   0.00000  Uiso   1.00
Cr948  Cr    0.86667   0.73333   0.42619   0.00000  Uiso   1.00
Cr949  Cr    0.93333   0.66667   0.07301   0.00000  Uiso   1.00
Cr950  Cr    0.93333   0.66667   0.44697   0.00000  Uiso   1.00
O951   O     0.86076   0.60000   0.35532   0.00000  Uiso   1.00
O952   O     0.80000   0.66076   0.35532   0.00000  Uiso   1.00
O953   O     0.93924   0.73924   0.35532   0.00000  Uiso   1.00
O954   O     0.87257   0.66667   0.33455   0.00000  Uiso   1.00
O955   O     0.93333   0.60591   0.33455   0.00000  Uiso   1.00
O956   O     0.99409   0.72743   0.33455   0.00000  Uiso   1.00
O957   O     0.99409   0.66667   0.02292   0.00000  Uiso   1.00
O958   O     0.99409   0.66667   0.39687   0.00000  Uiso   1.00
O959   O     0.93333   0.72743   0.02292   0.00000  Uiso   1.00
O960   O     0.93333   0.72743   0.39687   0.00000  Uiso   1.00
O961   O     0.87257   0.60591   0.02292   0.00000  Uiso   1.00
O962   O     0.87257   0.60591   0.39687   0.00000  Uiso   1.00
O963   O     0.80591   0.73333   0.50929   0.00000  Uiso   1.00
O964   O     0.80591   0.73333   0.37610   0.00000  Uiso   1.00
O965   O     0.86667   0.67257   0.50929   0.00000  Uiso   1.00
O966   O     0.86667   0.67257   0.37610   0.00000  Uiso   1.00
O967   O     0.92743   0.79409   0.50929   0.00000  Uiso   1.00
O968   O     0.92743   0.79409   0.37610   0.00000  Uiso   1.00
O969   O     0.92743   0.73333   0.06447   0.00000  Uiso   1.00
O970   O     0.92743   0.73333   0.43842   0.00000  Uiso   1.00
O971   O     0.86667   0.79409   0.06447   0.00000  Uiso   1.00
O972   O     0.86667   0.79409   0.43842   0.00000  Uiso   1.00
O973   O     0.80591   0.67257   0.06447   0.00000  Uiso   1.00
O974   O     0.80591   0.67257   0.43842   0.00000  Uiso   1.00
O975   O     0.93924   0.60000   0.04369   0.00000  Uiso   1.00
O976   O     0.93924   0.60000   0.41765   0.00000  Uiso   1.00
O977   O     0.80000   0.73924   0.04369   0.00000  Uiso   1.00
O978   O     0.80000   0.73924   0.41765   0.00000  Uiso   1.00
O979   O     0.86076   0.66076   0.04369   0.00000  Uiso   1.00
O980   O     0.86076   0.66076   0.41765   0.00000  Uiso   1.00
Cr981  Cr    0.06667   0.93333   0.32601   0.00000  Uiso   1.00
Cr982  Cr    0.13333   0.86667   0.34678   0.00000  Uiso   1.00
Cr983  Cr    0.00000   0.80000   0.34309   0.00000  Uiso   1.00
Cr984  Cr    0.06667   0.93333   0.36386   0.00000  Uiso   1.00
Cr985  Cr    0.00000   0.80000   0.36756   0.00000  Uiso   1.00
Cr986  Cr    0.06667   0.93333   0.01437   0.00000  Uiso   1.00
Cr987  Cr    0.06667   0.93333   0.38833   0.00000  Uiso   1.00
Cr988  Cr    0.13333   0.86667   0.01068   0.00000  Uiso   1.00
Cr989  Cr    0.13333   0.86667   0.38464   0.00000  Uiso   1.00
Cr990  Cr    0.00000   0.80000   0.03146   0.00000  Uiso   1.00
Cr991  Cr    0.00000   0.80000   0.40541   0.00000  Uiso   1.00
Cr992  Cr    0.13333   0.86667   0.03515   0.00000  Uiso   1.00
Cr993  Cr    0.13333   0.86667   0.40911   0.00000  Uiso   1.00
Cr994  Cr    0.00000   0.80000   0.05593   0.00000  Uiso   1.00
Cr995  Cr    0.00000   0.80000   0.42988   0.00000  Uiso   1.00
Cr996  Cr    0.06667   0.93333   0.05223   0.00000  Uiso   1.00
Cr997  Cr    0.06667   0.93333   0.42619   0.00000  Uiso   1.00
Cr998  Cr    0.13333   0.86667   0.07301   0.00000  Uiso   1.00
Cr999  Cr    0.13333   0.86667   0.44697   0.00000  Uiso   1.00
O1000  O     0.06076   0.80000   0.35532   0.00000  Uiso   1.00
O1001  O     0.00000   0.86076   0.35532   0.00000  Uiso   1.00
O1002  O     0.13924   0.93924   0.35532   0.00000  Uiso   1.00
O1003  O     0.07257   0.86667   0.33455   0.00000  Uiso   1.00
O1004  O     0.13333   0.80591   0.33455   0.00000  Uiso   1.00
O1005  O     0.19409   0.92743   0.33455   0.00000  Uiso   1.00
O1006  O     0.19409   0.86667   0.02292   0.00000  Uiso   1.00
O1007  O     0.19409   0.86667   0.39687   0.00000  Uiso   1.00
O1008  O     0.13333   0.92743   0.02292   0.00000  Uiso   1.00
O1009  O     0.13333   0.92743   0.39687   0.00000  Uiso   1.00
O1010  O     0.07257   0.80591   0.02292   0.00000  Uiso   1.00
O1011  O     0.07257   0.80591   0.39687   0.00000  Uiso   1.00
O1012  O     0.00591   0.93333   0.50929   0.00000  Uiso   1.00
O1013  O     0.00591   0.93333   0.37610   0.00000  Uiso   1.00
O1014  O     0.06667   0.87257   0.50929   0.00000  Uiso   1.00
O1015  O     0.06667   0.87257   0.37610   0.00000  Uiso   1.00
O1016  O     0.12743   0.99409   0.50929   0.00000  Uiso   1.00
O1017  O     0.12743   0.99409   0.37610   0.00000  Uiso   1.00
O1018  O     0.12743   0.93333   0.06447   0.00000  Uiso   1.00
O1019  O     0.12743   0.93333   0.43842   0.00000  Uiso   1.00
O1020  O     0.06667   0.99409   0.06447   0.00000  Uiso   1.00
O1021  O     0.06667   0.99409   0.43842   0.00000  Uiso   1.00
O1022  O     0.00591   0.87257   0.06447   0.00000  Uiso   1.00
O1023  O     0.00591   0.87257   0.43842   0.00000  Uiso   1.00
O1024  O     0.13924   0.80000   0.04369   0.00000  Uiso   1.00
O1025  O     0.13924   0.80000   0.41765   0.00000  Uiso   1.00
O1026  O     0.00000   0.93924   0.04369   0.00000  Uiso   1.00
O1027  O     0.00000   0.93924   0.41765   0.00000  Uiso   1.00
O1028  O     0.06076   0.86076   0.04369   0.00000  Uiso   1.00
O1029  O     0.06076   0.86076   0.41765   0.00000  Uiso   1.00
Cr1030 Cr    0.26667   0.93333   0.32601   0.00000  Uiso   1.00
Cr1031 Cr    0.33333   0.86667   0.34678   0.00000  Uiso   1.00
Cr1032 Cr    0.20000   0.80000   0.34309   0.00000  Uiso   1.00
Cr1033 Cr    0.26667   0.93333   0.36386   0.00000  Uiso   1.00
Cr1034 Cr    0.20000   0.80000   0.36756   0.00000  Uiso   1.00
Cr1035 Cr    0.26667   0.93333   0.01437   0.00000  Uiso   1.00
Cr1036 Cr    0.26667   0.93333   0.38833   0.00000  Uiso   1.00
Cr1037 Cr    0.33333   0.86667   0.01068   0.00000  Uiso   1.00
Cr1038 Cr    0.33333   0.86667   0.38464   0.00000  Uiso   1.00
Cr1039 Cr    0.20000   0.80000   0.03146   0.00000  Uiso   1.00
Cr1040 Cr    0.20000   0.80000   0.40541   0.00000  Uiso   1.00
Cr1041 Cr    0.33333   0.86667   0.03515   0.00000  Uiso   1.00
Cr1042 Cr    0.33333   0.86667   0.40911   0.00000  Uiso   1.00
Cr1043 Cr    0.20000   0.80000   0.05593   0.00000  Uiso   1.00
Cr1044 Cr    0.20000   0.80000   0.42988   0.00000  Uiso   1.00
Cr1045 Cr    0.26667   0.93333   0.05223   0.00000  Uiso   1.00
Cr1046 Cr    0.26667   0.93333   0.42619   0.00000  Uiso   1.00
Cr1047 Cr    0.33333   0.86667   0.07301   0.00000  Uiso   1.00
Cr1048 Cr    0.33333   0.86667   0.44697   0.00000  Uiso   1.00
O1049  O     0.26076   0.80000   0.35532   0.00000  Uiso   1.00
O1050  O     0.20000   0.86076   0.35532   0.00000  Uiso   1.00
O1051  O     0.33924   0.93924   0.35532   0.00000  Uiso   1.00
O1052  O     0.27257   0.86667   0.33455   0.00000  Uiso   1.00
O1053  O     0.33333   0.80591   0.33455   0.00000  Uiso   1.00
O1054  O     0.39409   0.92743   0.33455   0.00000  Uiso   1.00
O1055  O     0.39409   0.86667   0.02292   0.00000  Uiso   1.00
O1056  O     0.39409   0.86667   0.39687   0.00000  Uiso   1.00
O1057  O     0.33333   0.92743   0.02292   0.00000  Uiso   1.00
O1058  O     0.33333   0.92743   0.39687   0.00000  Uiso   1.00
O1059  O     0.27257   0.80591   0.02292   0.00000  Uiso   1.00
O1060  O     0.27257   0.80591   0.39687   0.00000  Uiso   1.00
O1061  O     0.20591   0.93333   0.50929   0.00000  Uiso   1.00
O1062  O     0.20591   0.93333   0.37610   0.00000  Uiso   1.00
O1063  O     0.26667   0.87257   0.50929   0.00000  Uiso   1.00
O1064  O     0.26667   0.87257   0.37610   0.00000  Uiso   1.00
O1065  O     0.32743   0.99409   0.50929   0.00000  Uiso   1.00
O1066  O     0.32743   0.99409   0.37610   0.00000  Uiso   1.00
O1067  O     0.32743   0.93333   0.06447   0.00000  Uiso   1.00
O1068  O     0.32743   0.93333   0.43842   0.00000  Uiso   1.00
O1069  O     0.26667   0.99409   0.06447   0.00000  Uiso   1.00
O1070  O     0.26667   0.99409   0.43842   0.00000  Uiso   1.00
O1071  O     0.20591   0.87257   0.06447   0.00000  Uiso   1.00
O1072  O     0.20591   0.87257   0.43842   0.00000  Uiso   1.00
O1073  O     0.33924   0.80000   0.04369   0.00000  Uiso   1.00
O1074  O     0.33924   0.80000   0.41765   0.00000  Uiso   1.00
O1075  O     0.20000   0.93924   0.04369   0.00000  Uiso   1.00
O1076  O     0.20000   0.93924   0.41765   0.00000  Uiso   1.00
O1077  O     0.26076   0.86076   0.04369   0.00000  Uiso   1.00
O1078  O     0.26076   0.86076   0.41765   0.00000  Uiso   1.00
Cr1079 Cr    0.46667   0.93333   0.32601   0.00000  Uiso   1.00
Cr1080 Cr    0.53333   0.86667   0.34678   0.00000  Uiso   1.00
Cr1081 Cr    0.40000   0.80000   0.34309   0.00000  Uiso   1.00
Cr1082 Cr    0.46667   0.93333   0.36386   0.00000  Uiso   1.00
Cr1083 Cr    0.40000   0.80000   0.36756   0.00000  Uiso   1.00
Cr1084 Cr    0.46667   0.93333   0.01437   0.00000  Uiso   1.00
Cr1085 Cr    0.46667   0.93333   0.38833   0.00000  Uiso   1.00
Cr1086 Cr    0.53333   0.86667   0.01068   0.00000  Uiso   1.00
Cr1087 Cr    0.53333   0.86667   0.38464   0.00000  Uiso   1.00
Cr1088 Cr    0.40000   0.80000   0.03146   0.00000  Uiso   1.00
Cr1089 Cr    0.40000   0.80000   0.40541   0.00000  Uiso   1.00
Cr1090 Cr    0.53333   0.86667   0.03515   0.00000  Uiso   1.00
Cr1091 Cr    0.53333   0.86667   0.40911   0.00000  Uiso   1.00
Cr1092 Cr    0.40000   0.80000   0.05593   0.00000  Uiso   1.00
Cr1093 Cr    0.40000   0.80000   0.42988   0.00000  Uiso   1.00
Cr1094 Cr    0.46667   0.93333   0.05223   0.00000  Uiso   1.00
Cr1095 Cr    0.46667   0.93333   0.42619   0.00000  Uiso   1.00
Cr1096 Cr    0.53333   0.86667   0.07301   0.00000  Uiso   1.00
Cr1097 Cr    0.53333   0.86667   0.44697   0.00000  Uiso   1.00
O1098  O     0.46076   0.80000   0.35532   0.00000  Uiso   1.00
O1099  O     0.40000   0.86076   0.35532   0.00000  Uiso   1.00
O1100  O     0.53924   0.93924   0.35532   0.00000  Uiso   1.00
O1101  O     0.47257   0.86667   0.33455   0.00000  Uiso   1.00
O1102  O     0.53333   0.80591   0.33455   0.00000  Uiso   1.00
O1103  O     0.59409   0.92743   0.33455   0.00000  Uiso   1.00
O1104  O     0.59409   0.86667   0.02292   0.00000  Uiso   1.00
O1105  O     0.59409   0.86667   0.39687   0.00000  Uiso   1.00
O1106  O     0.53333   0.92743   0.02292   0.00000  Uiso   1.00
O1107  O     0.53333   0.92743   0.39687   0.00000  Uiso   1.00
O1108  O     0.47257   0.80591   0.02292   0.00000  Uiso   1.00
O1109  O     0.47257   0.80591   0.39687   0.00000  Uiso   1.00
O1110  O     0.40591   0.93333   0.50929   0.00000  Uiso   1.00
O1111  O     0.40591   0.93333   0.37610   0.00000  Uiso   1.00
O1112  O     0.46667   0.87257   0.50929   0.00000  Uiso   1.00
O1113  O     0.46667   0.87257   0.37610   0.00000  Uiso   1.00
O1114  O     0.52743   0.99409   0.50929   0.00000  Uiso   1.00
O1115  O     0.52743   0.99409   0.37610   0.00000  Uiso   1.00
O1116  O     0.52743   0.93333   0.06447   0.00000  Uiso   1.00
O1117  O     0.52743   0.93333   0.43842   0.00000  Uiso   1.00
O1118  O     0.46667   0.99409   0.06447   0.00000  Uiso   1.00
O1119  O     0.46667   0.99409   0.43842   0.00000  Uiso   1.00
O1120  O     0.40591   0.87257   0.06447   0.00000  Uiso   1.00
O1121  O     0.40591   0.87257   0.43842   0.00000  Uiso   1.00
O1122  O     0.53924   0.80000   0.04369   0.00000  Uiso   1.00
O1123  O     0.53924   0.80000   0.41765   0.00000  Uiso   1.00
O1124  O     0.40000   0.93924   0.04369   0.00000  Uiso   1.00
O1125  O     0.40000   0.93924   0.41765   0.00000  Uiso   1.00
O1126  O     0.46076   0.86076   0.04369   0.00000  Uiso   1.00
O1127  O     0.46076   0.86076   0.41765   0.00000  Uiso   1.00
Cr1128 Cr    0.66667   0.93333   0.32601   0.00000  Uiso   1.00
Cr1129 Cr    0.73333   0.86667   0.34678   0.00000  Uiso   1.00
Cr1130 Cr    0.60000   0.80000   0.34309   0.00000  Uiso   1.00
Cr1131 Cr    0.66667   0.93333   0.36386   0.00000  Uiso   1.00
Cr1132 Cr    0.60000   0.80000   0.36756   0.00000  Uiso   1.00
Cr1133 Cr    0.66667   0.93333   0.01437   0.00000  Uiso   1.00
Cr1134 Cr    0.66667   0.93333   0.38833   0.00000  Uiso   1.00
Cr1135 Cr    0.73333   0.86667   0.01068   0.00000  Uiso   1.00
Cr1136 Cr    0.73333   0.86667   0.38464   0.00000  Uiso   1.00
Cr1137 Cr    0.60000   0.80000   0.03146   0.00000  Uiso   1.00
Cr1138 Cr    0.60000   0.80000   0.40541   0.00000  Uiso   1.00
Cr1139 Cr    0.73333   0.86667   0.03515   0.00000  Uiso   1.00
Cr1140 Cr    0.73333   0.86667   0.40911   0.00000  Uiso   1.00
Cr1141 Cr    0.60000   0.80000   0.05593   0.00000  Uiso   1.00
Cr1142 Cr    0.60000   0.80000   0.42988   0.00000  Uiso   1.00
Cr1143 Cr    0.66667   0.93333   0.05223   0.00000  Uiso   1.00
Cr1144 Cr    0.66667   0.93333   0.42619   0.00000  Uiso   1.00
Cr1145 Cr    0.73333   0.86667   0.07301   0.00000  Uiso   1.00
Cr1146 Cr    0.73333   0.86667   0.44697   0.00000  Uiso   1.00
O1147  O     0.66076   0.80000   0.35532   0.00000  Uiso   1.00
O1148  O     0.60000   0.86076   0.35532   0.00000  Uiso   1.00
O1149  O     0.73924   0.93924   0.35532   0.00000  Uiso   1.00
O1150  O     0.67257   0.86667   0.33455   0.00000  Uiso   1.00
O1151  O     0.73333   0.80591   0.33455   0.00000  Uiso   1.00
O1152  O     0.79409   0.92743   0.33455   0.00000  Uiso   1.00
O1153  O     0.79409   0.86667   0.02292   0.00000  Uiso   1.00
O1154  O     0.79409   0.86667   0.39687   0.00000  Uiso   1.00
O1155  O     0.73333   0.92743   0.02292   0.00000  Uiso   1.00
O1156  O     0.73333   0.92743   0.39687   0.00000  Uiso   1.00
O1157  O     0.67257   0.80591   0.02292   0.00000  Uiso   1.00
O1158  O     0.67257   0.80591   0.39687   0.00000  Uiso   1.00
O1159  O     0.60591   0.93333   0.50929   0.00000  Uiso   1.00
O1160  O     0.60591   0.93333   0.37610   0.00000  Uiso   1.00
O1161  O     0.66667   0.87257   0.50929   0.00000  Uiso   1.00
O1162  O     0.66667   0.87257   0.37610   0.00000  Uiso   1.00
O1163  O     0.72743   0.99409   0.50929   0.00000  Uiso   1.00
O1164  O     0.72743   0.99409   0.37610   0.00000  Uiso   1.00
O1165  O     0.72743   0.93333   0.06447   0.00000  Uiso   1.00
O1166  O     0.72743   0.93333   0.43842   0.00000  Uiso   1.00
O1167  O     0.66667   0.99409   0.06447   0.00000  Uiso   1.00
O1168  O     0.66667   0.99409   0.43842   0.00000  Uiso   1.00
O1169  O     0.60591   0.87257   0.06447   0.00000  Uiso   1.00
O1170  O     0.60591   0.87257   0.43842   0.00000  Uiso   1.00
O1171  O     0.73924   0.80000   0.04369   0.00000  Uiso   1.00
O1172  O     0.73924   0.80000   0.41765   0.00000  Uiso   1.00
O1173  O     0.60000   0.93924   0.04369   0.00000  Uiso   1.00
O1174  O     0.60000   0.93924   0.41765   0.00000  Uiso   1.00
O1175  O     0.66076   0.86076   0.04369   0.00000  Uiso   1.00
O1176  O     0.66076   0.86076   0.41765   0.00000  Uiso   1.00
Cr1177 Cr    0.86667   0.93333   0.32601   0.00000  Uiso   1.00
Cr1178 Cr    0.93333   0.86667   0.34678   0.00000  Uiso   1.00
Cr1179 Cr    0.80000   0.80000   0.34309   0.00000  Uiso   1.00
Cr1180 Cr    0.86667   0.93333   0.36386   0.00000  Uiso   1.00
Cr1181 Cr    0.80000   0.80000   0.36756   0.00000  Uiso   1.00
Cr1182 Cr    0.86667   0.93333   0.01437   0.00000  Uiso   1.00
Cr1183 Cr    0.86667   0.93333   0.38833   0.00000  Uiso   1.00
Cr1184 Cr    0.93333   0.86667   0.01068   0.00000  Uiso   1.00
Cr1185 Cr    0.93333   0.86667   0.38464   0.00000  Uiso   1.00
Cr1186 Cr    0.80000   0.80000   0.03146   0.00000  Uiso   1.00
Cr1187 Cr    0.80000   0.80000   0.40541   0.00000  Uiso   1.00
Cr1188 Cr    0.93333   0.86667   0.03515   0.00000  Uiso   1.00
Cr1189 Cr    0.93333   0.86667   0.40911   0.00000  Uiso   1.00
Cr1190 Cr    0.80000   0.80000   0.05593   0.00000  Uiso   1.00
Cr1191 Cr    0.80000   0.80000   0.42988   0.00000  Uiso   1.00
Cr1192 Cr    0.86667   0.93333   0.05223   0.00000  Uiso   1.00
Cr1193 Cr    0.86667   0.93333   0.42619   0.00000  Uiso   1.00
Cr1194 Cr    0.93333   0.86667   0.07301   0.00000  Uiso   1.00
Cr1195 Cr    0.93333   0.86667   0.44697   0.00000  Uiso   1.00
O1196  O     0.86076   0.80000   0.35532   0.00000  Uiso   1.00
O1197  O     0.80000   0.86076   0.35532   0.00000  Uiso   1.00
O1198  O     0.93924   0.93924   0.35532   0.00000  Uiso   1.00
O1199  O     0.87257   0.86667   0.33455   0.00000  Uiso   1.00
O1200  O     0.93333   0.80591   0.33455   0.00000  Uiso   1.00
O1201  O     0.99409   0.92743   0.33455   0.00000  Uiso   1.00
O1202  O     0.99409   0.86667   0.02292   0.00000  Uiso   1.00
O1203  O     0.99409   0.86667   0.39687   0.00000  Uiso   1.00
O1204  O     0.93333   0.92743   0.02292   0.00000  Uiso   1.00
O1205  O     0.93333   0.92743   0.39687   0.00000  Uiso   1.00
O1206  O     0.87257   0.80591   0.02292   0.00000  Uiso   1.00
O1207  O     0.87257   0.80591   0.39687   0.00000  Uiso   1.00
O1208  O     0.80591   0.93333   0.50929   0.00000  Uiso   1.00
O1209  O     0.80591   0.93333   0.37610   0.00000  Uiso   1.00
O1210  O     0.86667   0.87257   0.50929   0.00000  Uiso   1.00
O1211  O     0.86667   0.87257   0.37610   0.00000  Uiso   1.00
O1212  O     0.92743   0.99409   0.50929   0.00000  Uiso   1.00
O1213  O     0.92743   0.99409   0.37610   0.00000  Uiso   1.00
O1214  O     0.92743   0.93333   0.06447   0.00000  Uiso   1.00
O1215  O     0.92743   0.93333   0.43842   0.00000  Uiso   1.00
O1216  O     0.86667   0.99409   0.06447   0.00000  Uiso   1.00
O1217  O     0.86667   0.99409   0.43842   0.00000  Uiso   1.00
O1218  O     0.80591   0.87257   0.06447   0.00000  Uiso   1.00
O1219  O     0.80591   0.87257   0.43842   0.00000  Uiso   1.00
O1220  O     0.93924   0.80000   0.04369   0.00000  Uiso   1.00
O1221  O     0.93924   0.80000   0.41765   0.00000  Uiso   1.00
O1222  O     0.80000   0.93924   0.04369   0.00000  Uiso   1.00
O1223  O     0.80000   0.93924   0.41765   0.00000  Uiso   1.00
O1224  O     0.86076   0.86076   0.04369   0.00000  Uiso   1.00
O1225  O     0.86076   0.86076   0.41765   0.00000  Uiso   1.00
Cr1226 Cr    0.06667   0.13333   0.07670   0.00000  Uiso   1.00
Cr1227 Cr    0.06667   0.13333   0.45066   0.00000  Uiso   1.00
Cr1228 Cr    0.13333   0.06667   0.09748   0.00000  Uiso   1.00
Cr1229 Cr    0.13333   0.06667   0.47143   0.00000  Uiso   1.00
Cr1230 Cr    0.00000   0.00000   0.09378   0.00000  Uiso   1.00
Cr1231 Cr    0.00000   0.00000   0.46774   0.00000  Uiso   1.00
Cr1232 Cr    0.06667   0.13333   0.11456   0.00000  Uiso   1.00
Cr1233 Cr    0.06667   0.13333   0.48852   0.00000  Uiso   1.00
Cr1234 Cr    0.00000   0.00000   0.11825   0.00000  Uiso   1.00
Cr1235 Cr    0.00000   0.00000   0.49221   0.00000  Uiso   1.00
Cr1236 Cr    0.06667   0.13333   0.13903   0.00000  Uiso   1.00
Cr1237 Cr    0.13333   0.06667   0.13533   0.00000  Uiso   1.00
Cr1238 Cr    0.13333   0.06667   0.50929   0.00000  Uiso   1.00
Cr1239 Cr    0.00000   0.00000   0.15611   0.00000  Uiso   1.00
Cr1240 Cr    0.13333   0.06667   0.15980   0.00000  Uiso   1.00
Cr1241 Cr    0.00000   0.00000   0.18058   0.00000  Uiso   1.00
Cr1242 Cr    0.06667   0.13333   0.17688   0.00000  Uiso   1.00
Cr1243 Cr    0.13333   0.06667   0.19766   0.00000  Uiso   1.00
O1244  O     0.06076   0.00000   0.10602   0.00000  Uiso   1.00
O1245  O     0.06076   0.00000   0.47998   0.00000  Uiso   1.00
O1246  O     0.00000   0.06076   0.10602   0.00000  Uiso   1.00
O1247  O     0.00000   0.06076   0.47998   0.00000  Uiso   1.00
O1248  O     0.13924   0.13924   0.10602   0.00000  Uiso   1.00
O1249  O     0.13924   0.13924   0.47998   0.00000  Uiso   1.00
O1250  O     0.07257   0.06667   0.08524   0.00000  Uiso   1.00
O1251  O     0.07257   0.06667   0.45920   0.00000  Uiso   1.00
O1252  O     0.13333   0.00591   0.08524   0.00000  Uiso   1.00
O1253  O     0.13333   0.00591   0.45920   0.00000  Uiso   1.00
O1254  O     0.19409   0.12743   0.08524   0.00000  Uiso   1.00
O1255  O     0.19409   0.12743   0.45920   0.00000  Uiso   1.00
O1256  O     0.19409   0.06667   0.14757   0.00000  Uiso   1.00
O1257  O     0.13333   0.12743   0.14757   0.00000  Uiso   1.00
O1258  O     0.07257   0.00591   0.14757   0.00000  Uiso   1.00
O1259  O     0.00591   0.13333   0.12679   0.00000  Uiso   1.00
O1260  O     0.00591   0.13333   0.50075   0.00000  Uiso   1.00
O1261  O     0.06667   0.07257   0.12679   0.00000  Uiso   1.00
O1262  O     0.06667   0.07257   0.50075   0.00000  Uiso   1.00
O1263  O     0.12743   0.19409   0.12679   0.00000  Uiso   1.00
O1264  O     0.12743   0.19409   0.50075   0.00000  Uiso   1.00
O1265  O     0.12743   0.13333   0.18912   0.00000  Uiso   1.00
O1266  O     0.06667   0.19409   0.18912   0.00000  Uiso   1.00
O1267  O     0.00591   0.07257   0.18912   0.00000  Uiso   1.00
O1268  O     0.13924   0.00000   0.16834   0.00000  Uiso   1.00
O1269  O     0.00000   0.13924   0.16834   0.00000  Uiso   1.00
O1270  O     0.06076   0.06076   0.16834   0.00000  Uiso   1.00
Cr1271 Cr    0.26667   0.13333   0.07670   0.00000  Uiso   1.00
Cr1272 Cr    0.26667   0.13333   0.45066   0.00000  Uiso   1.00
Cr1273 Cr    0.33333   0.06667   0.09748   0.00000  Uiso   1.00
Cr1274 Cr    0.33333   0.06667   0.47143   0.00000  Uiso   1.00
Cr1275 Cr    0.20000  -0.00000   0.09378   0.00000  Uiso   1.00
Cr1276 Cr    0.20000  -0.00000   0.46774   0.00000  Uiso   1.00
Cr1277 Cr    0.26667   0.13333   0.11456   0.00000  Uiso   1.00
Cr1278 Cr    0.26667   0.13333   0.48852   0.00000  Uiso   1.00
Cr1279 Cr    0.20000  -0.00000   0.11825   0.00000  Uiso   1.00
Cr1280 Cr    0.20000  -0.00000   0.49221   0.00000  Uiso   1.00
Cr1281 Cr    0.26667   0.13333   0.13903   0.00000  Uiso   1.00
Cr1282 Cr    0.33333   0.06667   0.13533   0.00000  Uiso   1.00
Cr1283 Cr    0.33333   0.06667   0.50929   0.00000  Uiso   1.00
Cr1284 Cr    0.20000   0.00000   0.15611   0.00000  Uiso   1.00
Cr1285 Cr    0.33333   0.06667   0.15980   0.00000  Uiso   1.00
Cr1286 Cr    0.20000   0.00000   0.18058   0.00000  Uiso   1.00
Cr1287 Cr    0.26667   0.13333   0.17688   0.00000  Uiso   1.00
Cr1288 Cr    0.33333   0.06667   0.19766   0.00000  Uiso   1.00
O1289  O     0.26076   0.00000   0.10602   0.00000  Uiso   1.00
O1290  O     0.26076   0.00000   0.47998   0.00000  Uiso   1.00
O1291  O     0.20000   0.06076   0.10602   0.00000  Uiso   1.00
O1292  O     0.20000   0.06076   0.47998   0.00000  Uiso   1.00
O1293  O     0.33924   0.13924   0.10602   0.00000  Uiso   1.00
O1294  O     0.33924   0.13924   0.47998   0.00000  Uiso   1.00
O1295  O     0.27257   0.06667   0.08524   0.00000  Uiso   1.00
O1296  O     0.27257   0.06667   0.45920   0.00000  Uiso   1.00
O1297  O     0.33333   0.00591   0.08524   0.00000  Uiso   1.00
O1298  O     0.33333   0.00591   0.45920   0.00000  Uiso   1.00
O1299  O     0.39409   0.12743   0.08524   0.00000  Uiso   1.00
O1300  O     0.39409   0.12743   0.45920   0.00000  Uiso   1.00
O1301  O     0.39409   0.06667   0.14757   0.00000  Uiso   1.00
O1302  O     0.33333   0.12743   0.14757   0.00000  Uiso   1.00
O1303  O     0.27257   0.00591   0.14757   0.00000  Uiso   1.00
O1304  O     0.20591   0.13333   0.12679   0.00000  Uiso   1.00
O1305  O     0.20591   0.13333   0.50075   0.00000  Uiso   1.00
O1306  O     0.26667   0.07257   0.12679   0.00000  Uiso   1.00
O1307  O     0.26667   0.07257   0.50075   0.00000  Uiso   1.00
O1308  O     0.32743   0.19409   0.12679   0.00000  Uiso   1.00
O1309  O     0.32743   0.19409   0.50075   0.00000  Uiso   1.00
O1310  O     0.32743   0.13333   0.18912   0.00000  Uiso   1.00
O1311  O     0.26667   0.19409   0.18912   0.00000  Uiso   1.00
O1312  O     0.20591   0.07257   0.18912   0.00000  Uiso   1.00
O1313  O     0.33924   0.00000   0.16834   0.00000  Uiso   1.00
O1314  O     0.20000   0.13924   0.16834   0.00000  Uiso   1.00
O1315  O     0.26076   0.06076   0.16834   0.00000  Uiso   1.00
Cr1316 Cr    0.46667   0.13333   0.07670   0.00000  Uiso   1.00
Cr1317 Cr    0.46667   0.13333   0.45066   0.00000  Uiso   1.00
Cr1318 Cr    0.53333   0.06667   0.09748   0.00000  Uiso   1.00
Cr1319 Cr    0.53333   0.06667   0.47143   0.00000  Uiso   1.00
Cr1320 Cr    0.40000  -0.00000   0.09378   0.00000  Uiso   1.00
Cr1321 Cr    0.40000  -0.00000   0.46774   0.00000  Uiso   1.00
Cr1322 Cr    0.46667   0.13333   0.11456   0.00000  Uiso   1.00
Cr1323 Cr    0.46667   0.13333   0.48852   0.00000  Uiso   1.00
Cr1324 Cr    0.40000  -0.00000   0.11825   0.00000  Uiso   1.00
Cr1325 Cr    0.40000  -0.00000   0.49221   0.00000  Uiso   1.00
Cr1326 Cr    0.46667   0.13333   0.13903   0.00000  Uiso   1.00
Cr1327 Cr    0.53333   0.06667   0.13533   0.00000  Uiso   1.00
Cr1328 Cr    0.53333   0.06667   0.50929   0.00000  Uiso   1.00
Cr1329 Cr    0.40000  -0.00000   0.15611   0.00000  Uiso   1.00
Cr1330 Cr    0.53333   0.06667   0.15980   0.00000  Uiso   1.00
Cr1331 Cr    0.40000  -0.00000   0.18058   0.00000  Uiso   1.00
Cr1332 Cr    0.46667   0.13333   0.17688   0.00000  Uiso   1.00
Cr1333 Cr    0.53333   0.06667   0.19766   0.00000  Uiso   1.00
O1334  O     0.46076   0.00000   0.10602   0.00000  Uiso   1.00
O1335  O     0.46076   0.00000   0.47998   0.00000  Uiso   1.00
O1336  O     0.40000   0.06076   0.10602   0.00000  Uiso   1.00
O1337  O     0.40000   0.06076   0.47998   0.00000  Uiso   1.00
O1338  O     0.53924   0.13924   0.10602   0.00000  Uiso   1.00
O1339  O     0.53924   0.13924   0.47998   0.00000  Uiso   1.00
O1340  O     0.47257   0.06667   0.08524   0.00000  Uiso   1.00
O1341  O     0.47257   0.06667   0.45920   0.00000  Uiso   1.00
O1342  O     0.53333   0.00591   0.08524   0.00000  Uiso   1.00
O1343  O     0.53333   0.00591   0.45920   0.00000  Uiso   1.00
O1344  O     0.59409   0.12743   0.08524   0.00000  Uiso   1.00
O1345  O     0.59409   0.12743   0.45920   0.00000  Uiso   1.00
O1346  O     0.59409   0.06667   0.14757   0.00000  Uiso   1.00
O1347  O     0.53333   0.12743   0.14757   0.00000  Uiso   1.00
O1348  O     0.47257   0.00591   0.14757   0.00000  Uiso   1.00
O1349  O     0.40591   0.13333   0.12679   0.00000  Uiso   1.00
O1350  O     0.40591   0.13333   0.50075   0.00000  Uiso   1.00
O1351  O     0.46667   0.07257   0.12679   0.00000  Uiso   1.00
O1352  O     0.46667   0.07257   0.50075   0.00000  Uiso   1.00
O1353  O     0.52743   0.19409   0.12679   0.00000  Uiso   1.00
O1354  O     0.52743   0.19409   0.50075   0.00000  Uiso   1.00
O1355  O     0.52743   0.13333   0.18912   0.00000  Uiso   1.00
O1356  O     0.46667   0.19409   0.18912   0.00000  Uiso   1.00
O1357  O     0.40591   0.07257   0.18912   0.00000  Uiso   1.00
O1358  O     0.53924   0.00000   0.16834   0.00000  Uiso   1.00
O1359  O     0.40000   0.13924   0.16834   0.00000  Uiso   1.00
O1360  O     0.46076   0.06076   0.16834   0.00000  Uiso   1.00
Cr1361 Cr    0.66667   0.13333   0.07670   0.00000  Uiso   1.00
Cr1362 Cr    0.66667   0.13333   0.45066   0.00000  Uiso   1.00
Cr1363 Cr    0.73333   0.06667   0.09748   0.00000  Uiso   1.00
Cr1364 Cr    0.73333   0.06667   0.47143   0.00000  Uiso   1.00
Cr1365 Cr    0.60000  -0.00000   0.09378   0.00000  Uiso   1.00
Cr1366 Cr    0.60000  -0.00000   0.46774   0.00000  Uiso   1.00
Cr1367 Cr    0.66667   0.13333   0.11456   0.00000  Uiso   1.00
Cr1368 Cr    0.66667   0.13333   0.48852   0.00000  Uiso   1.00
Cr1369 Cr    0.60000  -0.00000   0.11825   0.00000  Uiso   1.00
Cr1370 Cr    0.60000  -0.00000   0.49221   0.00000  Uiso   1.00
Cr1371 Cr    0.66667   0.13333   0.13903   0.00000  Uiso   1.00
Cr1372 Cr    0.73333   0.06667   0.13533   0.00000  Uiso   1.00
Cr1373 Cr    0.73333   0.06667   0.50929   0.00000  Uiso   1.00
Cr1374 Cr    0.60000  -0.00000   0.15611   0.00000  Uiso   1.00
Cr1375 Cr    0.73333   0.06667   0.15980   0.00000  Uiso   1.00
Cr1376 Cr    0.60000  -0.00000   0.18058   0.00000  Uiso   1.00
Cr1377 Cr    0.66667   0.13333   0.17688   0.00000  Uiso   1.00
Cr1378 Cr    0.73333   0.06667   0.19766   0.00000  Uiso   1.00
O1379  O     0.66076   0.00000   0.10602   0.00000  Uiso   1.00
O1380  O     0.66076   0.00000   0.47998   0.00000  Uiso   1.00
O1381  O     0.60000   0.06076   0.10602   0.00000  Uiso   1.00
O1382  O     0.60000   0.06076   0.47998   0.00000  Uiso   1.00
O1383  O     0.73924   0.13924   0.10602   0.00000  Uiso   1.00
O1384  O     0.73924   0.13924   0.47998   0.00000  Uiso   1.00
O1385  O     0.67257   0.06667   0.08524   0.00000  Uiso   1.00
O1386  O     0.67257   0.06667   0.45920   0.00000  Uiso   1.00
O1387  O     0.73333   0.00591   0.08524   0.00000  Uiso   1.00
O1388  O     0.73333   0.00591   0.45920   0.00000  Uiso   1.00
O1389  O     0.79409   0.12743   0.08524   0.00000  Uiso   1.00
O1390  O     0.79409   0.12743   0.45920   0.00000  Uiso   1.00
O1391  O     0.79409   0.06667   0.14757   0.00000  Uiso   1.00
O1392  O     0.73333   0.12743   0.14757   0.00000  Uiso   1.00
O1393  O     0.67257   0.00591   0.14757   0.00000  Uiso   1.00
O1394  O     0.60591   0.13333   0.12679   0.00000  Uiso   1.00
O1395  O     0.60591   0.13333   0.50075   0.00000  Uiso   1.00
O1396  O     0.66667   0.07257   0.12679   0.00000  Uiso   1.00
O1397  O     0.66667   0.07257   0.50075   0.00000  Uiso   1.00
O1398  O     0.72743   0.19409   0.12679   0.00000  Uiso   1.00
O1399  O     0.72743   0.19409   0.50075   0.00000  Uiso   1.00
O1400  O     0.72743   0.13333   0.18912   0.00000  Uiso   1.00
O1401  O     0.66667   0.19409   0.18912   0.00000  Uiso   1.00
O1402  O     0.60591   0.07257   0.18912   0.00000  Uiso   1.00
O1403  O     0.73924  -0.00000   0.16834   0.00000  Uiso   1.00
O1404  O     0.60000   0.13924   0.16834   0.00000  Uiso   1.00
O1405  O     0.66076   0.06076   0.16834   0.00000  Uiso   1.00
Cr1406 Cr    0.86667   0.13333   0.07670   0.00000  Uiso   1.00
Cr1407 Cr    0.86667   0.13333   0.45066   0.00000  Uiso   1.00
Cr1408 Cr    0.93333   0.06667   0.09748   0.00000  Uiso   1.00
Cr1409 Cr    0.93333   0.06667   0.47143   0.00000  Uiso   1.00
Cr1410 Cr    0.80000  -0.00000   0.09378   0.00000  Uiso   1.00
Cr1411 Cr    0.80000  -0.00000   0.46774   0.00000  Uiso   1.00
Cr1412 Cr    0.86667   0.13333   0.11456   0.00000  Uiso   1.00
Cr1413 Cr    0.86667   0.13333   0.48852   0.00000  Uiso   1.00
Cr1414 Cr    0.80000  -0.00000   0.11825   0.00000  Uiso   1.00
Cr1415 Cr    0.80000  -0.00000   0.49221   0.00000  Uiso   1.00
Cr1416 Cr    0.86667   0.13333   0.13903   0.00000  Uiso   1.00
Cr1417 Cr    0.93333   0.06667   0.13533   0.00000  Uiso   1.00
Cr1418 Cr    0.93333   0.06667   0.50929   0.00000  Uiso   1.00
Cr1419 Cr    0.80000  -0.00000   0.15611   0.00000  Uiso   1.00
Cr1420 Cr    0.93333   0.06667   0.15980   0.00000  Uiso   1.00
Cr1421 Cr    0.80000  -0.00000   0.18058   0.00000  Uiso   1.00
Cr1422 Cr    0.86667   0.13333   0.17688   0.00000  Uiso   1.00
Cr1423 Cr    0.93333   0.06667   0.19766   0.00000  Uiso   1.00
O1424  O     0.86076   0.00000   0.10602   0.00000  Uiso   1.00
O1425  O     0.86076   0.00000   0.47998   0.00000  Uiso   1.00
O1426  O     0.80000   0.06076   0.10602   0.00000  Uiso   1.00
O1427  O     0.80000   0.06076   0.47998   0.00000  Uiso   1.00
O1428  O     0.93924   0.13924   0.10602   0.00000  Uiso   1.00
O1429  O     0.93924   0.13924   0.47998   0.00000  Uiso   1.00
O1430  O     0.87257   0.06667   0.08524   0.00000  Uiso   1.00
O1431  O     0.87257   0.06667   0.45920   0.00000  Uiso   1.00
O1432  O     0.93333   0.00591   0.08524   0.00000  Uiso   1.00
O1433  O     0.93333   0.00591   0.45920   0.00000  Uiso   1.00
O1434  O     0.99409   0.12743   0.08524   0.00000  Uiso   1.00
O1435  O     0.99409   0.12743   0.45920   0.00000  Uiso   1.00
O1436  O     0.99409   0.06667   0.14757   0.00000  Uiso   1.00
O1437  O     0.93333   0.12743   0.14757   0.00000  Uiso   1.00
O1438  O     0.87257   0.00591   0.14757   0.00000  Uiso   1.00
O1439  O     0.80591   0.13333   0.12679   0.00000  Uiso   1.00
O1440  O     0.80591   0.13333   0.50075   0.00000  Uiso   1.00
O1441  O     0.86667   0.07257   0.12679   0.00000  Uiso   1.00
O1442  O     0.86667   0.07257   0.50075   0.00000  Uiso   1.00
O1443  O     0.92743   0.19409   0.12679   0.00000  Uiso   1.00
O1444  O     0.92743   0.19409   0.50075   0.00000  Uiso   1.00
O1445  O     0.92743   0.13333   0.18912   0.00000  Uiso   1.00
O1446  O     0.86667   0.19409   0.18912   0.00000  Uiso   1.00
O1447  O     0.80591   0.07257   0.18912   0.00000  Uiso   1.00
O1448  O     0.93924  -0.00000   0.16834   0.00000  Uiso   1.00
O1449  O     0.80000   0.13924   0.16834   0.00000  Uiso   1.00
O1450  O     0.86076   0.06076   0.16834   0.00000  Uiso   1.00
Cr1451 Cr    0.06667   0.33333   0.07670   0.00000  Uiso   1.00
Cr1452 Cr    0.06667   0.33333   0.45066   0.00000  Uiso   1.00
Cr1453 Cr    0.13333   0.26667   0.09748   0.00000  Uiso   1.00
Cr1454 Cr    0.13333   0.26667   0.47143   0.00000  Uiso   1.00
Cr1455 Cr    0.00000   0.20000   0.09378   0.00000  Uiso   1.00
Cr1456 Cr    0.00000   0.20000   0.46774   0.00000  Uiso   1.00
Cr1457 Cr    0.06667   0.33333   0.11456   0.00000  Uiso   1.00
Cr1458 Cr    0.06667   0.33333   0.48852   0.00000  Uiso   1.00
Cr1459 Cr    0.00000   0.20000   0.11825   0.00000  Uiso   1.00
Cr1460 Cr    0.00000   0.20000   0.49221   0.00000  Uiso   1.00
Cr1461 Cr    0.06667   0.33333   0.13903   0.00000  Uiso   1.00
Cr1462 Cr    0.13333   0.26667   0.13533   0.00000  Uiso   1.00
Cr1463 Cr    0.13333   0.26667   0.50929   0.00000  Uiso   1.00
Cr1464 Cr    0.00000   0.20000   0.15611   0.00000  Uiso   1.00
Cr1465 Cr    0.13333   0.26667   0.15980   0.00000  Uiso   1.00
Cr1466 Cr    0.00000   0.20000   0.18058   0.00000  Uiso   1.00
Cr1467 Cr    0.06667   0.33333   0.17688   0.00000  Uiso   1.00
Cr1468 Cr    0.13333   0.26667   0.19766   0.00000  Uiso   1.00
O1469  O     0.06076   0.20000   0.10602   0.00000  Uiso   1.00
O1470  O     0.06076   0.20000   0.47998   0.00000  Uiso   1.00
O1471  O     0.00000   0.26076   0.10602   0.00000  Uiso   1.00
O1472  O     0.00000   0.26076   0.47998   0.00000  Uiso   1.00
O1473  O     0.13924   0.33924   0.10602   0.00000  Uiso   1.00
O1474  O     0.13924   0.33924   0.47998   0.00000  Uiso   1.00
O1475  O     0.07257   0.26667   0.08524   0.00000  Uiso   1.00
O1476  O     0.07257   0.26667   0.45920   0.00000  Uiso   1.00
O1477  O     0.13333   0.20591   0.08524   0.00000  Uiso   1.00
O1478  O     0.13333   0.20591   0.45920   0.00000  Uiso   1.00
O1479  O     0.19409   0.32743   0.08524   0.00000  Uiso   1.00
O1480  O     0.19409   0.32743   0.45920   0.00000  Uiso   1.00
O1481  O     0.19409   0.26667   0.14757   0.00000  Uiso   1.00
O1482  O     0.13333   0.32743   0.14757   0.00000  Uiso   1.00
O1483  O     0.07257   0.20591   0.14757   0.00000  Uiso   1.00
O1484  O     0.00591   0.33333   0.12679   0.00000  Uiso   1.00
O1485  O     0.00591   0.33333   0.50075   0.00000  Uiso   1.00
O1486  O     0.06667   0.27257   0.12679   0.00000  Uiso   1.00
O1487  O     0.06667   0.27257   0.50075   0.00000  Uiso   1.00
O1488  O     0.12743   0.39409   0.12679   0.00000  Uiso   1.00
O1489  O     0.12743   0.39409   0.50075   0.00000  Uiso   1.00
O1490  O     0.12743   0.33333   0.18912   0.00000  Uiso   1.00
O1491  O     0.06667   0.39409   0.18912   0.00000  Uiso   1.00
O1492  O     0.00591   0.27257   0.18912   0.00000  Uiso   1.00
O1493  O     0.13924   0.20000   0.16834   0.00000  Uiso   1.00
O1494  O     0.00000   0.33924   0.16834   0.00000  Uiso   1.00
O1495  O     0.06076   0.26076   0.16834   0.00000  Uiso   1.00
Cr1496 Cr    0.26667   0.33333   0.07670   0.00000  Uiso   1.00
Cr1497 Cr    0.26667   0.33333   0.45066   0.00000  Uiso   1.00
Cr1498 Cr    0.33333   0.26667   0.09748   0.00000  Uiso   1.00
Cr1499 Cr    0.33333   0.26667   0.47143   0.00000  Uiso   1.00
Cr1500 Cr    0.20000   0.20000   0.09378   0.00000  Uiso   1.00
Cr1501 Cr    0.20000   0.20000   0.46774   0.00000  Uiso   1.00
Cr1502 Cr    0.26667   0.33333   0.11456   0.00000  Uiso   1.00
Cr1503 Cr    0.26667   0.33333   0.48852   0.00000  Uiso   1.00
Cr1504 Cr    0.20000   0.20000   0.11825   0.00000  Uiso   1.00
Cr1505 Cr    0.20000   0.20000   0.49221   0.00000  Uiso   1.00
Cr1506 Cr    0.26667   0.33333   0.13903   0.00000  Uiso   1.00
Cr1507 Cr    0.33333   0.26667   0.13533   0.00000  Uiso   1.00
Cr1508 Cr    0.33333   0.26667   0.50929   0.00000  Uiso   1.00
Cr1509 Cr    0.20000   0.20000   0.15611   0.00000  Uiso   1.00
Cr1510 Cr    0.33333   0.26667   0.15980   0.00000  Uiso   1.00
Cr1511 Cr    0.20000   0.20000   0.18058   0.00000  Uiso   1.00
Cr1512 Cr    0.26667   0.33333   0.17688   0.00000  Uiso   1.00
Cr1513 Cr    0.33333   0.26667   0.19766   0.00000  Uiso   1.00
O1514  O     0.26076   0.20000   0.10602   0.00000  Uiso   1.00
O1515  O     0.26076   0.20000   0.47998   0.00000  Uiso   1.00
O1516  O     0.20000   0.26076   0.10602   0.00000  Uiso   1.00
O1517  O     0.20000   0.26076   0.47998   0.00000  Uiso   1.00
O1518  O     0.33924   0.33924   0.10602   0.00000  Uiso   1.00
O1519  O     0.33924   0.33924   0.47998   0.00000  Uiso   1.00
O1520  O     0.27257   0.26667   0.08524   0.00000  Uiso   1.00
O1521  O     0.27257   0.26667   0.45920   0.00000  Uiso   1.00
O1522  O     0.33333   0.20591   0.08524   0.00000  Uiso   1.00
O1523  O     0.33333   0.20591   0.45920   0.00000  Uiso   1.00
O1524  O     0.39409   0.32743   0.08524   0.00000  Uiso   1.00
O1525  O     0.39409   0.32743   0.45920   0.00000  Uiso   1.00
O1526  O     0.39409   0.26667   0.14757   0.00000  Uiso   1.00
O1527  O     0.33333   0.32743   0.14757   0.00000  Uiso   1.00
O1528  O     0.27257   0.20591   0.14757   0.00000  Uiso   1.00
O1529  O     0.20591   0.33333   0.12679   0.00000  Uiso   1.00
O1530  O     0.20591   0.33333   0.50075   0.00000  Uiso   1.00
O1531  O     0.26667   0.27257   0.12679   0.00000  Uiso   1.00
O1532  O     0.26667   0.27257   0.50075   0.00000  Uiso   1.00
O1533  O     0.32743   0.39409   0.12679   0.00000  Uiso   1.00
O1534  O     0.32743   0.39409   0.50075   0.00000  Uiso   1.00
O1535  O     0.32743   0.33333   0.18912   0.00000  Uiso   1.00
O1536  O     0.26667   0.39409   0.18912   0.00000  Uiso   1.00
O1537  O     0.20591   0.27257   0.18912   0.00000  Uiso   1.00
O1538  O     0.33924   0.20000   0.16834   0.00000  Uiso   1.00
O1539  O     0.20000   0.33924   0.16834   0.00000  Uiso   1.00
O1540  O     0.26076   0.26076   0.16834   0.00000  Uiso   1.00
Cr1541 Cr    0.46667   0.33333   0.07670   0.00000  Uiso   1.00
Cr1542 Cr    0.46667   0.33333   0.45066   0.00000  Uiso   1.00
Cr1543 Cr    0.53333   0.26667   0.09748   0.00000  Uiso   1.00
Cr1544 Cr    0.53333   0.26667   0.47143   0.00000  Uiso   1.00
Cr1545 Cr    0.40000   0.20000   0.09378   0.00000  Uiso   1.00
Cr1546 Cr    0.40000   0.20000   0.46774   0.00000  Uiso   1.00
Cr1547 Cr    0.46667   0.33333   0.11456   0.00000  Uiso   1.00
Cr1548 Cr    0.46667   0.33333   0.48852   0.00000  Uiso   1.00
Cr1549 Cr    0.40000   0.20000   0.11825   0.00000  Uiso   1.00
Cr1550 Cr    0.40000   0.20000   0.49221   0.00000  Uiso   1.00
Cr1551 Cr    0.46667   0.33333   0.13903   0.00000  Uiso   1.00
Cr1552 Cr    0.53333   0.26667   0.13533   0.00000  Uiso   1.00
Cr1553 Cr    0.53333   0.26667   0.50929   0.00000  Uiso   1.00
Cr1554 Cr    0.40000   0.20000   0.15611   0.00000  Uiso   1.00
Cr1555 Cr    0.53333   0.26667   0.15980   0.00000  Uiso   1.00
Cr1556 Cr    0.40000   0.20000   0.18058   0.00000  Uiso   1.00
Cr1557 Cr    0.46667   0.33333   0.17688   0.00000  Uiso   1.00
Cr1558 Cr    0.53333   0.26667   0.19766   0.00000  Uiso   1.00
O1559  O     0.46076   0.20000   0.10602   0.00000  Uiso   1.00
O1560  O     0.46076   0.20000   0.47998   0.00000  Uiso   1.00
O1561  O     0.40000   0.26076   0.10602   0.00000  Uiso   1.00
O1562  O     0.40000   0.26076   0.47998   0.00000  Uiso   1.00
O1563  O     0.53924   0.33924   0.10602   0.00000  Uiso   1.00
O1564  O     0.53924   0.33924   0.47998   0.00000  Uiso   1.00
O1565  O     0.47257   0.26667   0.08524   0.00000  Uiso   1.00
O1566  O     0.47257   0.26667   0.45920   0.00000  Uiso   1.00
O1567  O     0.53333   0.20591   0.08524   0.00000  Uiso   1.00
O1568  O     0.53333   0.20591   0.45920   0.00000  Uiso   1.00
O1569  O     0.59409   0.32743   0.08524   0.00000  Uiso   1.00
O1570  O     0.59409   0.32743   0.45920   0.00000  Uiso   1.00
O1571  O     0.59409   0.26667   0.14757   0.00000  Uiso   1.00
O1572  O     0.53333   0.32743   0.14757   0.00000  Uiso   1.00
O1573  O     0.47257   0.20591   0.14757   0.00000  Uiso   1.00
O1574  O     0.40591   0.33333   0.12679   0.00000  Uiso   1.00
O1575  O     0.40591   0.33333   0.50075   0.00000  Uiso   1.00
O1576  O     0.46667   0.27257   0.12679   0.00000  Uiso   1.00
O1577  O     0.46667   0.27257   0.50075   0.00000  Uiso   1.00
O1578  O     0.52743   0.39409   0.12679   0.00000  Uiso   1.00
O1579  O     0.52743   0.39409   0.50075   0.00000  Uiso   1.00
O1580  O     0.52743   0.33333   0.18912   0.00000  Uiso   1.00
O1581  O     0.46667   0.39409   0.18912   0.00000  Uiso   1.00
O1582  O     0.40591   0.27257   0.18912   0.00000  Uiso   1.00
O1583  O     0.53924   0.20000   0.16834   0.00000  Uiso   1.00
O1584  O     0.40000   0.33924   0.16834   0.00000  Uiso   1.00
O1585  O     0.46076   0.26076   0.16834   0.00000  Uiso   1.00
Cr1586 Cr    0.66667   0.33333   0.07670   0.00000  Uiso   1.00
Cr1587 Cr    0.66667   0.33333   0.45066   0.00000  Uiso   1.00
Cr1588 Cr    0.73333   0.26667   0.09748   0.00000  Uiso   1.00
Cr1589 Cr    0.73333   0.26667   0.47143   0.00000  Uiso   1.00
Cr1590 Cr    0.60000   0.20000   0.09378   0.00000  Uiso   1.00
Cr1591 Cr    0.60000   0.20000   0.46774   0.00000  Uiso   1.00
Cr1592 Cr    0.66667   0.33333   0.11456   0.00000  Uiso   1.00
Cr1593 Cr    0.66667   0.33333   0.48852   0.00000  Uiso   1.00
Cr1594 Cr    0.60000   0.20000   0.11825   0.00000  Uiso   1.00
Cr1595 Cr    0.60000   0.20000   0.49221   0.00000  Uiso   1.00
Cr1596 Cr    0.66667   0.33333   0.13903   0.00000  Uiso   1.00
Cr1597 Cr    0.73333   0.26667   0.13533   0.00000  Uiso   1.00
Cr1598 Cr    0.73333   0.26667   0.50929   0.00000  Uiso   1.00
Cr1599 Cr    0.60000   0.20000   0.15611   0.00000  Uiso   1.00
Cr1600 Cr    0.73333   0.26667   0.15980   0.00000  Uiso   1.00
Cr1601 Cr    0.60000   0.20000   0.18058   0.00000  Uiso   1.00
Cr1602 Cr    0.66667   0.33333   0.17688   0.00000  Uiso   1.00
Cr1603 Cr    0.73333   0.26667   0.19766   0.00000  Uiso   1.00
O1604  O     0.66076   0.20000   0.10602   0.00000  Uiso   1.00
O1605  O     0.66076   0.20000   0.47998   0.00000  Uiso   1.00
O1606  O     0.60000   0.26076   0.10602   0.00000  Uiso   1.00
O1607  O     0.60000   0.26076   0.47998   0.00000  Uiso   1.00
O1608  O     0.73924   0.33924   0.10602   0.00000  Uiso   1.00
O1609  O     0.73924   0.33924   0.47998   0.00000  Uiso   1.00
O1610  O     0.67257   0.26667   0.08524   0.00000  Uiso   1.00
O1611  O     0.67257   0.26667   0.45920   0.00000  Uiso   1.00
O1612  O     0.73333   0.20591   0.08524   0.00000  Uiso   1.00
O1613  O     0.73333   0.20591   0.45920   0.00000  Uiso   1.00
O1614  O     0.79409   0.32743   0.08524   0.00000  Uiso   1.00
O1615  O     0.79409   0.32743   0.45920   0.00000  Uiso   1.00
O1616  O     0.79409   0.26667   0.14757   0.00000  Uiso   1.00
O1617  O     0.73333   0.32743   0.14757   0.00000  Uiso   1.00
O1618  O     0.67257   0.20591   0.14757   0.00000  Uiso   1.00
O1619  O     0.60591   0.33333   0.12679   0.00000  Uiso   1.00
O1620  O     0.60591   0.33333   0.50075   0.00000  Uiso   1.00
O1621  O     0.66667   0.27257   0.12679   0.00000  Uiso   1.00
O1622  O     0.66667   0.27257   0.50075   0.00000  Uiso   1.00
O1623  O     0.72743   0.39409   0.12679   0.00000  Uiso   1.00
O1624  O     0.72743   0.39409   0.50075   0.00000  Uiso   1.00
O1625  O     0.72743   0.33333   0.18912   0.00000  Uiso   1.00
O1626  O     0.66667   0.39409   0.18912   0.00000  Uiso   1.00
O1627  O     0.60591   0.27257   0.18912   0.00000  Uiso   1.00
O1628  O     0.73924   0.20000   0.16834   0.00000  Uiso   1.00
O1629  O     0.60000   0.33924   0.16834   0.00000  Uiso   1.00
O1630  O     0.66076   0.26076   0.16834   0.00000  Uiso   1.00
Cr1631 Cr    0.86667   0.33333   0.07670   0.00000  Uiso   1.00
Cr1632 Cr    0.86667   0.33333   0.45066   0.00000  Uiso   1.00
Cr1633 Cr    0.93333   0.26667   0.09748   0.00000  Uiso   1.00
Cr1634 Cr    0.93333   0.26667   0.47143   0.00000  Uiso   1.00
Cr1635 Cr    0.80000   0.20000   0.09378   0.00000  Uiso   1.00
Cr1636 Cr    0.80000   0.20000   0.46774   0.00000  Uiso   1.00
Cr1637 Cr    0.86667   0.33333   0.11456   0.00000  Uiso   1.00
Cr1638 Cr    0.86667   0.33333   0.48852   0.00000  Uiso   1.00
Cr1639 Cr    0.80000   0.20000   0.11825   0.00000  Uiso   1.00
Cr1640 Cr    0.80000   0.20000   0.49221   0.00000  Uiso   1.00
Cr1641 Cr    0.86667   0.33333   0.13903   0.00000  Uiso   1.00
Cr1642 Cr    0.93333   0.26667   0.13533   0.00000  Uiso   1.00
Cr1643 Cr    0.93333   0.26667   0.50929   0.00000  Uiso   1.00
Cr1644 Cr    0.80000   0.20000   0.15611   0.00000  Uiso   1.00
Cr1645 Cr    0.93333   0.26667   0.15980   0.00000  Uiso   1.00
Cr1646 Cr    0.80000   0.20000   0.18058   0.00000  Uiso   1.00
Cr1647 Cr    0.86667   0.33333   0.17688   0.00000  Uiso   1.00
Cr1648 Cr    0.93333   0.26667   0.19766   0.00000  Uiso   1.00
O1649  O     0.86076   0.20000   0.10602   0.00000  Uiso   1.00
O1650  O     0.86076   0.20000   0.47998   0.00000  Uiso   1.00
O1651  O     0.80000   0.26076   0.10602   0.00000  Uiso   1.00
O1652  O     0.80000   0.26076   0.47998   0.00000  Uiso   1.00
O1653  O     0.93924   0.33924   0.10602   0.00000  Uiso   1.00
O1654  O     0.93924   0.33924   0.47998   0.00000  Uiso   1.00
O1655  O     0.87257   0.26667   0.08524   0.00000  Uiso   1.00
O1656  O     0.87257   0.26667   0.45920   0.00000  Uiso   1.00
O1657  O     0.93333   0.20591   0.08524   0.00000  Uiso   1.00
O1658  O     0.93333   0.20591   0.45920   0.00000  Uiso   1.00
O1659  O     0.99409   0.32743   0.08524   0.00000  Uiso   1.00
O1660  O     0.99409   0.32743   0.45920   0.00000  Uiso   1.00
O1661  O     0.99409   0.26667   0.14757   0.00000  Uiso   1.00
O1662  O     0.93333   0.32743   0.14757   0.00000  Uiso   1.00
O1663  O     0.87257   0.20591   0.14757   0.00000  Uiso   1.00
O1664  O     0.80591   0.33333   0.12679   0.00000  Uiso   1.00
O1665  O     0.80591   0.33333   0.50075   0.00000  Uiso   1.00
O1666  O     0.86667   0.27257   0.12679   0.00000  Uiso   1.00
O1667  O     0.86667   0.27257   0.50075   0.00000  Uiso   1.00
O1668  O     0.92743   0.39409   0.12679   0.00000  Uiso   1.00
O1669  O     0.92743   0.39409   0.50075   0.00000  Uiso   1.00
O1670  O     0.92743   0.33333   0.18912   0.00000  Uiso   1.00
O1671  O     0.86667   0.39409   0.18912   0.00000  Uiso   1.00
O1672  O     0.80591   0.27257   0.18912   0.00000  Uiso   1.00
O1673  O     0.93924   0.20000   0.16834   0.00000  Uiso   1.00
O1674  O     0.80000   0.33924   0.16834   0.00000  Uiso   1.00
O1675  O     0.86076   0.26076   0.16834   0.00000  Uiso   1.00
Cr1676 Cr    0.06667   0.53333   0.07670   0.00000  Uiso   1.00
Cr1677 Cr    0.06667   0.53333   0.45066   0.00000  Uiso   1.00
Cr1678 Cr    0.13333   0.46667   0.09748   0.00000  Uiso   1.00
Cr1679 Cr    0.13333   0.46667   0.47143   0.00000  Uiso   1.00
Cr1680 Cr    0.00000   0.40000   0.09378   0.00000  Uiso   1.00
Cr1681 Cr    0.00000   0.40000   0.46774   0.00000  Uiso   1.00
Cr1682 Cr    0.06667   0.53333   0.11456   0.00000  Uiso   1.00
Cr1683 Cr    0.06667   0.53333   0.48852   0.00000  Uiso   1.00
Cr1684 Cr    0.00000   0.40000   0.11825   0.00000  Uiso   1.00
Cr1685 Cr    0.00000   0.40000   0.49221   0.00000  Uiso   1.00
Cr1686 Cr    0.06667   0.53333   0.13903   0.00000  Uiso   1.00
Cr1687 Cr    0.13333   0.46667   0.13533   0.00000  Uiso   1.00
Cr1688 Cr    0.13333   0.46667   0.50929   0.00000  Uiso   1.00
Cr1689 Cr    0.00000   0.40000   0.15611   0.00000  Uiso   1.00
Cr1690 Cr    0.13333   0.46667   0.15980   0.00000  Uiso   1.00
Cr1691 Cr    0.00000   0.40000   0.18058   0.00000  Uiso   1.00
Cr1692 Cr    0.06667   0.53333   0.17688   0.00000  Uiso   1.00
Cr1693 Cr    0.13333   0.46667   0.19766   0.00000  Uiso   1.00
O1694  O     0.06076   0.40000   0.10602   0.00000  Uiso   1.00
O1695  O     0.06076   0.40000   0.47998   0.00000  Uiso   1.00
O1696  O     0.00000   0.46076   0.10602   0.00000  Uiso   1.00
O1697  O     0.00000   0.46076   0.47998   0.00000  Uiso   1.00
O1698  O     0.13924   0.53924   0.10602   0.00000  Uiso   1.00
O1699  O     0.13924   0.53924   0.47998   0.00000  Uiso   1.00
O1700  O     0.07257   0.46667   0.08524   0.00000  Uiso   1.00
O1701  O     0.07257   0.46667   0.45920   0.00000  Uiso   1.00
O1702  O     0.13333   0.40591   0.08524   0.00000  Uiso   1.00
O1703  O     0.13333   0.40591   0.45920   0.00000  Uiso   1.00
O1704  O     0.19409   0.52743   0.08524   0.00000  Uiso   1.00
O1705  O     0.19409   0.52743   0.45920   0.00000  Uiso   1.00
O1706  O     0.19409   0.46667   0.14757   0.00000  Uiso   1.00
O1707  O     0.13333   0.52743   0.14757   0.00000  Uiso   1.00
O1708  O     0.07257   0.40591   0.14757   0.00000  Uiso   1.00
O1709  O     0.00591   0.53333   0.12679   0.00000  Uiso   1.00
O1710  O     0.00591   0.53333   0.50075   0.00000  Uiso   1.00
O1711  O     0.06667   0.47257   0.12679   0.00000  Uiso   1.00
O1712  O     0.06667   0.47257   0.50075   0.00000  Uiso   1.00
O1713  O     0.12743   0.59409   0.12679   0.00000  Uiso   1.00
O1714  O     0.12743   0.59409   0.50075   0.00000  Uiso   1.00
O1715  O     0.12743   0.53333   0.18912   0.00000  Uiso   1.00
O1716  O     0.06667   0.59409   0.18912   0.00000  Uiso   1.00
O1717  O     0.00591   0.47257   0.18912   0.00000  Uiso   1.00
O1718  O     0.13924   0.40000   0.16834   0.00000  Uiso   1.00
O1719  O     0.00000   0.53924   0.16834   0.00000  Uiso   1.00
O1720  O     0.06076   0.46076   0.16834   0.00000  Uiso   1.00
Cr1721 Cr    0.26667   0.53333   0.07670   0.00000  Uiso   1.00
Cr1722 Cr    0.26667   0.53333   0.45066   0.00000  Uiso   1.00
Cr1723 Cr    0.33333   0.46667   0.09748   0.00000  Uiso   1.00
Cr1724 Cr    0.33333   0.46667   0.47143   0.00000  Uiso   1.00
Cr1725 Cr    0.20000   0.40000   0.09378   0.00000  Uiso   1.00
Cr1726 Cr    0.20000   0.40000   0.46774   0.00000  Uiso   1.00
Cr1727 Cr    0.26667   0.53333   0.11456   0.00000  Uiso   1.00
Cr1728 Cr    0.26667   0.53333   0.48852   0.00000  Uiso   1.00
Cr1729 Cr    0.20000   0.40000   0.11825   0.00000  Uiso   1.00
Cr1730 Cr    0.20000   0.40000   0.49221   0.00000  Uiso   1.00
Cr1731 Cr    0.26667   0.53333   0.13903   0.00000  Uiso   1.00
Cr1732 Cr    0.33333   0.46667   0.13533   0.00000  Uiso   1.00
Cr1733 Cr    0.33333   0.46667   0.50929   0.00000  Uiso   1.00
Cr1734 Cr    0.20000   0.40000   0.15611   0.00000  Uiso   1.00
Cr1735 Cr    0.33333   0.46667   0.15980   0.00000  Uiso   1.00
Cr1736 Cr    0.20000   0.40000   0.18058   0.00000  Uiso   1.00
Cr1737 Cr    0.26667   0.53333   0.17688   0.00000  Uiso   1.00
Cr1738 Cr    0.33333   0.46667   0.19766   0.00000  Uiso   1.00
O1739  O     0.26076   0.40000   0.10602   0.00000  Uiso   1.00
O1740  O     0.26076   0.40000   0.47998   0.00000  Uiso   1.00
O1741  O     0.20000   0.46076   0.10602   0.00000  Uiso   1.00
O1742  O     0.20000   0.46076   0.47998   0.00000  Uiso   1.00
O1743  O     0.33924   0.53924   0.10602   0.00000  Uiso   1.00
O1744  O     0.33924   0.53924   0.47998   0.00000  Uiso   1.00
O1745  O     0.27257   0.46667   0.08524   0.00000  Uiso   1.00
O1746  O     0.27257   0.46667   0.45920   0.00000  Uiso   1.00
O1747  O     0.33333   0.40591   0.08524   0.00000  Uiso   1.00
O1748  O     0.33333   0.40591   0.45920   0.00000  Uiso   1.00
O1749  O     0.39409   0.52743   0.08524   0.00000  Uiso   1.00
O1750  O     0.39409   0.52743   0.45920   0.00000  Uiso   1.00
O1751  O     0.39409   0.46667   0.14757   0.00000  Uiso   1.00
O1752  O     0.33333   0.52743   0.14757   0.00000  Uiso   1.00
O1753  O     0.27257   0.40591   0.14757   0.00000  Uiso   1.00
O1754  O     0.20591   0.53333   0.12679   0.00000  Uiso   1.00
O1755  O     0.20591   0.53333   0.50075   0.00000  Uiso   1.00
O1756  O     0.26667   0.47257   0.12679   0.00000  Uiso   1.00
O1757  O     0.26667   0.47257   0.50075   0.00000  Uiso   1.00
O1758  O     0.32743   0.59409   0.12679   0.00000  Uiso   1.00
O1759  O     0.32743   0.59409   0.50075   0.00000  Uiso   1.00
O1760  O     0.32743   0.53333   0.18912   0.00000  Uiso   1.00
O1761  O     0.26667   0.59409   0.18912   0.00000  Uiso   1.00
O1762  O     0.20591   0.47257   0.18912   0.00000  Uiso   1.00
O1763  O     0.33924   0.40000   0.16834   0.00000  Uiso   1.00
O1764  O     0.20000   0.53924   0.16834   0.00000  Uiso   1.00
O1765  O     0.26076   0.46076   0.16834   0.00000  Uiso   1.00
Cr1766 Cr    0.46667   0.53333   0.07670   0.00000  Uiso   1.00
Cr1767 Cr    0.46667   0.53333   0.45066   0.00000  Uiso   1.00
Cr1768 Cr    0.53333   0.46667   0.09748   0.00000  Uiso   1.00
Cr1769 Cr    0.53333   0.46667   0.47143   0.00000  Uiso   1.00
Cr1770 Cr    0.40000   0.40000   0.09378   0.00000  Uiso   1.00
Cr1771 Cr    0.40000   0.40000   0.46774   0.00000  Uiso   1.00
Cr1772 Cr    0.46667   0.53333   0.11456   0.00000  Uiso   1.00
Cr1773 Cr    0.46667   0.53333   0.48852   0.00000  Uiso   1.00
Cr1774 Cr    0.40000   0.40000   0.11825   0.00000  Uiso   1.00
Cr1775 Cr    0.40000   0.40000   0.49221   0.00000  Uiso   1.00
Cr1776 Cr    0.46667   0.53333   0.13903   0.00000  Uiso   1.00
Cr1777 Cr    0.53333   0.46667   0.13533   0.00000  Uiso   1.00
Cr1778 Cr    0.53333   0.46667   0.50929   0.00000  Uiso   1.00
Cr1779 Cr    0.40000   0.40000   0.15611   0.00000  Uiso   1.00
Cr1780 Cr    0.53333   0.46667   0.15980   0.00000  Uiso   1.00
Cr1781 Cr    0.40000   0.40000   0.18058   0.00000  Uiso   1.00
Cr1782 Cr    0.46667   0.53333   0.17688   0.00000  Uiso   1.00
Cr1783 Cr    0.53333   0.46667   0.19766   0.00000  Uiso   1.00
O1784  O     0.46076   0.40000   0.10602   0.00000  Uiso   1.00
O1785  O     0.46076   0.40000   0.47998   0.00000  Uiso   1.00
O1786  O     0.40000   0.46076   0.10602   0.00000  Uiso   1.00
O1787  O     0.40000   0.46076   0.47998   0.00000  Uiso   1.00
O1788  O     0.53924   0.53924   0.10602   0.00000  Uiso   1.00
O1789  O     0.53924   0.53924   0.47998   0.00000  Uiso   1.00
O1790  O     0.47257   0.46667   0.08524   0.00000  Uiso   1.00
O1791  O     0.47257   0.46667   0.45920   0.00000  Uiso   1.00
O1792  O     0.53333   0.40591   0.08524   0.00000  Uiso   1.00
O1793  O     0.53333   0.40591   0.45920   0.00000  Uiso   1.00
O1794  O     0.59409   0.52743   0.08524   0.00000  Uiso   1.00
O1795  O     0.59409   0.52743   0.45920   0.00000  Uiso   1.00
O1796  O     0.59409   0.46667   0.14757   0.00000  Uiso   1.00
O1797  O     0.53333   0.52743   0.14757   0.00000  Uiso   1.00
O1798  O     0.47257   0.40591   0.14757   0.00000  Uiso   1.00
O1799  O     0.40591   0.53333   0.12679   0.00000  Uiso   1.00
O1800  O     0.40591   0.53333   0.50075   0.00000  Uiso   1.00
O1801  O     0.46667   0.47257   0.12679   0.00000  Uiso   1.00
O1802  O     0.46667   0.47257   0.50075   0.00000  Uiso   1.00
O1803  O     0.52743   0.59409   0.12679   0.00000  Uiso   1.00
O1804  O     0.52743   0.59409   0.50075   0.00000  Uiso   1.00
O1805  O     0.52743   0.53333   0.18912   0.00000  Uiso   1.00
O1806  O     0.46667   0.59409   0.18912   0.00000  Uiso   1.00
O1807  O     0.40591   0.47257   0.18912   0.00000  Uiso   1.00
O1808  O     0.53924   0.40000   0.16834   0.00000  Uiso   1.00
O1809  O     0.40000   0.53924   0.16834   0.00000  Uiso   1.00
O1810  O     0.46076   0.46076   0.16834   0.00000  Uiso   1.00
Cr1811 Cr    0.66667   0.53333   0.07670   0.00000  Uiso   1.00
Cr1812 Cr    0.66667   0.53333   0.45066   0.00000  Uiso   1.00
Cr1813 Cr    0.73333   0.46667   0.09748   0.00000  Uiso   1.00
Cr1814 Cr    0.73333   0.46667   0.47143   0.00000  Uiso   1.00
Cr1815 Cr    0.60000   0.40000   0.09378   0.00000  Uiso   1.00
Cr1816 Cr    0.60000   0.40000   0.46774   0.00000  Uiso   1.00
Cr1817 Cr    0.66667   0.53333   0.11456   0.00000  Uiso   1.00
Cr1818 Cr    0.66667   0.53333   0.48852   0.00000  Uiso   1.00
Cr1819 Cr    0.60000   0.40000   0.11825   0.00000  Uiso   1.00
Cr1820 Cr    0.60000   0.40000   0.49221   0.00000  Uiso   1.00
Cr1821 Cr    0.66667   0.53333   0.13903   0.00000  Uiso   1.00
Cr1822 Cr    0.73333   0.46667   0.13533   0.00000  Uiso   1.00
Cr1823 Cr    0.73333   0.46667   0.50929   0.00000  Uiso   1.00
Cr1824 Cr    0.60000   0.40000   0.15611   0.00000  Uiso   1.00
Cr1825 Cr    0.73333   0.46667   0.15980   0.00000  Uiso   1.00
Cr1826 Cr    0.60000   0.40000   0.18058   0.00000  Uiso   1.00
Cr1827 Cr    0.66667   0.53333   0.17688   0.00000  Uiso   1.00
Cr1828 Cr    0.73333   0.46667   0.19766   0.00000  Uiso   1.00
O1829  O     0.66076   0.40000   0.10602   0.00000  Uiso   1.00
O1830  O     0.66076   0.40000   0.47998   0.00000  Uiso   1.00
O1831  O     0.60000   0.46076   0.10602   0.00000  Uiso   1.00
O1832  O     0.60000   0.46076   0.47998   0.00000  Uiso   1.00
O1833  O     0.73924   0.53924   0.10602   0.00000  Uiso   1.00
O1834  O     0.73924   0.53924   0.47998   0.00000  Uiso   1.00
O1835  O     0.67257   0.46667   0.08524   0.00000  Uiso   1.00
O1836  O     0.67257   0.46667   0.45920   0.00000  Uiso   1.00
O1837  O     0.73333   0.40591   0.08524   0.00000  Uiso   1.00
O1838  O     0.73333   0.40591   0.45920   0.00000  Uiso   1.00
O1839  O     0.79409   0.52743   0.08524   0.00000  Uiso   1.00
O1840  O     0.79409   0.52743   0.45920   0.00000  Uiso   1.00
O1841  O     0.79409   0.46667   0.14757   0.00000  Uiso   1.00
O1842  O     0.73333   0.52743   0.14757   0.00000  Uiso   1.00
O1843  O     0.67257   0.40591   0.14757   0.00000  Uiso   1.00
O1844  O     0.60591   0.53333   0.12679   0.00000  Uiso   1.00
O1845  O     0.60591   0.53333   0.50075   0.00000  Uiso   1.00
O1846  O     0.66667   0.47257   0.12679   0.00000  Uiso   1.00
O1847  O     0.66667   0.47257   0.50075   0.00000  Uiso   1.00
O1848  O     0.72743   0.59409   0.12679   0.00000  Uiso   1.00
O1849  O     0.72743   0.59409   0.50075   0.00000  Uiso   1.00
O1850  O     0.72743   0.53333   0.18912   0.00000  Uiso   1.00
O1851  O     0.66667   0.59409   0.18912   0.00000  Uiso   1.00
O1852  O     0.60591   0.47257   0.18912   0.00000  Uiso   1.00
O1853  O     0.73924   0.40000   0.16834   0.00000  Uiso   1.00
O1854  O     0.60000   0.53924   0.16834   0.00000  Uiso   1.00
O1855  O     0.66076   0.46076   0.16834   0.00000  Uiso   1.00
Cr1856 Cr    0.86667   0.53333   0.07670   0.00000  Uiso   1.00
Cr1857 Cr    0.86667   0.53333   0.45066   0.00000  Uiso   1.00
Cr1858 Cr    0.93333   0.46667   0.09748   0.00000  Uiso   1.00
Cr1859 Cr    0.93333   0.46667   0.47143   0.00000  Uiso   1.00
Cr1860 Cr    0.80000   0.40000   0.09378   0.00000  Uiso   1.00
Cr1861 Cr    0.80000   0.40000   0.46774   0.00000  Uiso   1.00
Cr1862 Cr    0.86667   0.53333   0.11456   0.00000  Uiso   1.00
Cr1863 Cr    0.86667   0.53333   0.48852   0.00000  Uiso   1.00
Cr1864 Cr    0.80000   0.40000   0.11825   0.00000  Uiso   1.00
Cr1865 Cr    0.80000   0.40000   0.49221   0.00000  Uiso   1.00
Cr1866 Cr    0.86667   0.53333   0.13903   0.00000  Uiso   1.00
Cr1867 Cr    0.93333   0.46667   0.13533   0.00000  Uiso   1.00
Cr1868 Cr    0.93333   0.46667   0.50929   0.00000  Uiso   1.00
Cr1869 Cr    0.80000   0.40000   0.15611   0.00000  Uiso   1.00
Cr1870 Cr    0.93333   0.46667   0.15980   0.00000  Uiso   1.00
Cr1871 Cr    0.80000   0.40000   0.18058   0.00000  Uiso   1.00
Cr1872 Cr    0.86667   0.53333   0.17688   0.00000  Uiso   1.00
Cr1873 Cr    0.93333   0.46667   0.19766   0.00000  Uiso   1.00
O1874  O     0.86076   0.40000   0.10602   0.00000  Uiso   1.00
O1875  O     0.86076   0.40000   0.47998   0.00000  Uiso   1.00
O1876  O     0.80000   0.46076   0.10602   0.00000  Uiso   1.00
O1877  O     0.80000   0.46076   0.47998   0.00000  Uiso   1.00
O1878  O     0.93924   0.53924   0.10602   0.00000  Uiso   1.00
O1879  O     0.93924   0.53924   0.47998   0.00000  Uiso   1.00
O1880  O     0.87257   0.46667   0.08524   0.00000  Uiso   1.00
O1881  O     0.87257   0.46667   0.45920   0.00000  Uiso   1.00
O1882  O     0.93333   0.40591   0.08524   0.00000  Uiso   1.00
O1883  O     0.93333   0.40591   0.45920   0.00000  Uiso   1.00
O1884  O     0.99409   0.52743   0.08524   0.00000  Uiso   1.00
O1885  O     0.99409   0.52743   0.45920   0.00000  Uiso   1.00
O1886  O     0.99409   0.46667   0.14757   0.00000  Uiso   1.00
O1887  O     0.93333   0.52743   0.14757   0.00000  Uiso   1.00
O1888  O     0.87257   0.40591   0.14757   0.00000  Uiso   1.00
O1889  O     0.80591   0.53333   0.12679   0.00000  Uiso   1.00
O1890  O     0.80591   0.53333   0.50075   0.00000  Uiso   1.00
O1891  O     0.86667   0.47257   0.12679   0.00000  Uiso   1.00
O1892  O     0.86667   0.47257   0.50075   0.00000  Uiso   1.00
O1893  O     0.92743   0.59409   0.12679   0.00000  Uiso   1.00
O1894  O     0.92743   0.59409   0.50075   0.00000  Uiso   1.00
O1895  O     0.92743   0.53333   0.18912   0.00000  Uiso   1.00
O1896  O     0.86667   0.59409   0.18912   0.00000  Uiso   1.00
O1897  O     0.80591   0.47257   0.18912   0.00000  Uiso   1.00
O1898  O     0.93924   0.40000   0.16834   0.00000  Uiso   1.00
O1899  O     0.80000   0.53924   0.16834   0.00000  Uiso   1.00
O1900  O     0.86076   0.46076   0.16834   0.00000  Uiso   1.00
Cr1901 Cr    0.06667   0.73333   0.07670   0.00000  Uiso   1.00
Cr1902 Cr    0.06667   0.73333   0.45066   0.00000  Uiso   1.00
Cr1903 Cr    0.13333   0.66667   0.09748   0.00000  Uiso   1.00
Cr1904 Cr    0.13333   0.66667   0.47143   0.00000  Uiso   1.00
Cr1905 Cr    0.00000   0.60000   0.09378   0.00000  Uiso   1.00
Cr1906 Cr    0.00000   0.60000   0.46774   0.00000  Uiso   1.00
Cr1907 Cr    0.06667   0.73333   0.11456   0.00000  Uiso   1.00
Cr1908 Cr    0.06667   0.73333   0.48852   0.00000  Uiso   1.00
Cr1909 Cr    0.00000   0.60000   0.11825   0.00000  Uiso   1.00
Cr1910 Cr    0.00000   0.60000   0.49221   0.00000  Uiso   1.00
Cr1911 Cr    0.06667   0.73333   0.13903   0.00000  Uiso   1.00
Cr1912 Cr    0.13333   0.66667   0.13533   0.00000  Uiso   1.00
Cr1913 Cr    0.13333   0.66667   0.50929   0.00000  Uiso   1.00
Cr1914 Cr    0.00000   0.60000   0.15611   0.00000  Uiso   1.00
Cr1915 Cr    0.13333   0.66667   0.15980   0.00000  Uiso   1.00
Cr1916 Cr    0.00000   0.60000   0.18058   0.00000  Uiso   1.00
Cr1917 Cr    0.06667   0.73333   0.17688   0.00000  Uiso   1.00
Cr1918 Cr    0.13333   0.66667   0.19766   0.00000  Uiso   1.00
O1919  O     0.06076   0.60000   0.10602   0.00000  Uiso   1.00
O1920  O     0.06076   0.60000   0.47998   0.00000  Uiso   1.00
O1921  O     0.00000   0.66076   0.10602   0.00000  Uiso   1.00
O1922  O     0.00000   0.66076   0.47998   0.00000  Uiso   1.00
O1923  O     0.13924   0.73924   0.10602   0.00000  Uiso   1.00
O1924  O     0.13924   0.73924   0.47998   0.00000  Uiso   1.00
O1925  O     0.07257   0.66667   0.08524   0.00000  Uiso   1.00
O1926  O     0.07257   0.66667   0.45920   0.00000  Uiso   1.00
O1927  O     0.13333   0.60591   0.08524   0.00000  Uiso   1.00
O1928  O     0.13333   0.60591   0.45920   0.00000  Uiso   1.00
O1929  O     0.19409   0.72743   0.08524   0.00000  Uiso   1.00
O1930  O     0.19409   0.72743   0.45920   0.00000  Uiso   1.00
O1931  O     0.19409   0.66667   0.14757   0.00000  Uiso   1.00
O1932  O     0.13333   0.72743   0.14757   0.00000  Uiso   1.00
O1933  O     0.07257   0.60591   0.14757   0.00000  Uiso   1.00
O1934  O     0.00591   0.73333   0.12679   0.00000  Uiso   1.00
O1935  O     0.00591   0.73333   0.50075   0.00000  Uiso   1.00
O1936  O     0.06667   0.67257   0.12679   0.00000  Uiso   1.00
O1937  O     0.06667   0.67257   0.50075   0.00000  Uiso   1.00
O1938  O     0.12743   0.79409   0.12679   0.00000  Uiso   1.00
O1939  O     0.12743   0.79409   0.50075   0.00000  Uiso   1.00
O1940  O     0.12743   0.73333   0.18912   0.00000  Uiso   1.00
O1941  O     0.06667   0.79409   0.18912   0.00000  Uiso   1.00
O1942  O     0.00591   0.67257   0.18912   0.00000  Uiso   1.00
O1943  O     0.13924   0.60000   0.16834   0.00000  Uiso   1.00
O1944  O     0.00000   0.73924   0.16834   0.00000  Uiso   1.00
O1945  O     0.06076   0.66076   0.16834   0.00000  Uiso   1.00
Cr1946 Cr    0.26667   0.73333   0.07670   0.00000  Uiso   1.00
Cr1947 Cr    0.26667   0.73333   0.45066   0.00000  Uiso   1.00
Cr1948 Cr    0.33333   0.66667   0.09748   0.00000  Uiso   1.00
Cr1949 Cr    0.33333   0.66667   0.47143   0.00000  Uiso   1.00
Cr1950 Cr    0.20000   0.60000   0.09378   0.00000  Uiso   1.00
Cr1951 Cr    0.20000   0.60000   0.46774   0.00000  Uiso   1.00
Cr1952 Cr    0.26667   0.73333   0.11456   0.00000  Uiso   1.00
Cr1953 Cr    0.26667   0.73333   0.48852   0.00000  Uiso   1.00
Cr1954 Cr    0.20000   0.60000   0.11825   0.00000  Uiso   1.00
Cr1955 Cr    0.20000   0.60000   0.49221   0.00000  Uiso   1.00
Cr1956 Cr    0.26667   0.73333   0.13903   0.00000  Uiso   1.00
Cr1957 Cr    0.33333   0.66667   0.13533   0.00000  Uiso   1.00
Cr1958 Cr    0.33333   0.66667   0.50929   0.00000  Uiso   1.00
Cr1959 Cr    0.20000   0.60000   0.15611   0.00000  Uiso   1.00
Cr1960 Cr    0.33333   0.66667   0.15980   0.00000  Uiso   1.00
Cr1961 Cr    0.20000   0.60000   0.18058   0.00000  Uiso   1.00
Cr1962 Cr    0.26667   0.73333   0.17688   0.00000  Uiso   1.00
Cr1963 Cr    0.33333   0.66667   0.19766   0.00000  Uiso   1.00
O1964  O     0.26076   0.60000   0.10602   0.00000  Uiso   1.00
O1965  O     0.26076   0.60000   0.47998   0.00000  Uiso   1.00
O1966  O     0.20000   0.66076   0.10602   0.00000  Uiso   1.00
O1967  O     0.20000   0.66076   0.47998   0.00000  Uiso   1.00
O1968  O     0.33924   0.73924   0.10602   0.00000  Uiso   1.00
O1969  O     0.33924   0.73924   0.47998   0.00000  Uiso   1.00
O1970  O     0.27257   0.66667   0.08524   0.00000  Uiso   1.00
O1971  O     0.27257   0.66667   0.45920   0.00000  Uiso   1.00
O1972  O     0.33333   0.60591   0.08524   0.00000  Uiso   1.00
O1973  O     0.33333   0.60591   0.45920   0.00000  Uiso   1.00
O1974  O     0.39409   0.72743   0.08524   0.00000  Uiso   1.00
O1975  O     0.39409   0.72743   0.45920   0.00000  Uiso   1.00
O1976  O     0.39409   0.66667   0.14757   0.00000  Uiso   1.00
O1977  O     0.33333   0.72743   0.14757   0.00000  Uiso   1.00
O1978  O     0.27257   0.60591   0.14757   0.00000  Uiso   1.00
O1979  O     0.20591   0.73333   0.12679   0.00000  Uiso   1.00
O1980  O     0.20591   0.73333   0.50075   0.00000  Uiso   1.00
O1981  O     0.26667   0.67257   0.12679   0.00000  Uiso   1.00
O1982  O     0.26667   0.67257   0.50075   0.00000  Uiso   1.00
O1983  O     0.32743   0.79409   0.12679   0.00000  Uiso   1.00
O1984  O     0.32743   0.79409   0.50075   0.00000  Uiso   1.00
O1985  O     0.32743   0.73333   0.18912   0.00000  Uiso   1.00
O1986  O     0.26667   0.79409   0.18912   0.00000  Uiso   1.00
O1987  O     0.20591   0.67257   0.18912   0.00000  Uiso   1.00
O1988  O     0.33924   0.60000   0.16834   0.00000  Uiso   1.00
O1989  O     0.20000   0.73924   0.16834   0.00000  Uiso   1.00
O1990  O     0.26076   0.66076   0.16834   0.00000  Uiso   1.00
Cr1991 Cr    0.46667   0.73333   0.07670   0.00000  Uiso   1.00
Cr1992 Cr    0.46667   0.73333   0.45066   0.00000  Uiso   1.00
Cr1993 Cr    0.53333   0.66667   0.09748   0.00000  Uiso   1.00
Cr1994 Cr    0.53333   0.66667   0.47143   0.00000  Uiso   1.00
Cr1995 Cr    0.40000   0.60000   0.09378   0.00000  Uiso   1.00
Cr1996 Cr    0.40000   0.60000   0.46774   0.00000  Uiso   1.00
Cr1997 Cr    0.46667   0.73333   0.11456   0.00000  Uiso   1.00
Cr1998 Cr    0.46667   0.73333   0.48852   0.00000  Uiso   1.00
Cr1999 Cr    0.40000   0.60000   0.11825   0.00000  Uiso   1.00
Cr2000 Cr    0.40000   0.60000   0.49221   0.00000  Uiso   1.00
Cr2001 Cr    0.46667   0.73333   0.13903   0.00000  Uiso   1.00
Cr2002 Cr    0.53333   0.66667   0.13533   0.00000  Uiso   1.00
Cr2003 Cr    0.53333   0.66667   0.50929   0.00000  Uiso   1.00
Cr2004 Cr    0.40000   0.60000   0.15611   0.00000  Uiso   1.00
Cr2005 Cr    0.53333   0.66667   0.15980   0.00000  Uiso   1.00
Cr2006 Cr    0.40000   0.60000   0.18058   0.00000  Uiso   1.00
Cr2007 Cr    0.46667   0.73333   0.17688   0.00000  Uiso   1.00
Cr2008 Cr    0.53333   0.66667   0.19766   0.00000  Uiso   1.00
O2009  O     0.46076   0.60000   0.10602   0.00000  Uiso   1.00
O2010  O     0.46076   0.60000   0.47998   0.00000  Uiso   1.00
O2011  O     0.40000   0.66076   0.10602   0.00000  Uiso   1.00
O2012  O     0.40000   0.66076   0.47998   0.00000  Uiso   1.00
O2013  O     0.53924   0.73924   0.10602   0.00000  Uiso   1.00
O2014  O     0.53924   0.73924   0.47998   0.00000  Uiso   1.00
O2015  O     0.47257   0.66667   0.08524   0.00000  Uiso   1.00
O2016  O     0.47257   0.66667   0.45920   0.00000  Uiso   1.00
O2017  O     0.53333   0.60591   0.08524   0.00000  Uiso   1.00
O2018  O     0.53333   0.60591   0.45920   0.00000  Uiso   1.00
O2019  O     0.59409   0.72743   0.08524   0.00000  Uiso   1.00
O2020  O     0.59409   0.72743   0.45920   0.00000  Uiso   1.00
O2021  O     0.59409   0.66667   0.14757   0.00000  Uiso   1.00
O2022  O     0.53333   0.72743   0.14757   0.00000  Uiso   1.00
O2023  O     0.47257   0.60591   0.14757   0.00000  Uiso   1.00
O2024  O     0.40591   0.73333   0.12679   0.00000  Uiso   1.00
O2025  O     0.40591   0.73333   0.50075   0.00000  Uiso   1.00
O2026  O     0.46667   0.67257   0.12679   0.00000  Uiso   1.00
O2027  O     0.46667   0.67257   0.50075   0.00000  Uiso   1.00
O2028  O     0.52743   0.79409   0.12679   0.00000  Uiso   1.00
O2029  O     0.52743   0.79409   0.50075   0.00000  Uiso   1.00
O2030  O     0.52743   0.73333   0.18912   0.00000  Uiso   1.00
O2031  O     0.46667   0.79409   0.18912   0.00000  Uiso   1.00
O2032  O     0.40591   0.67257   0.18912   0.00000  Uiso   1.00
O2033  O     0.53924   0.60000   0.16834   0.00000  Uiso   1.00
O2034  O     0.40000   0.73924   0.16834   0.00000  Uiso   1.00
O2035  O     0.46076   0.66076   0.16834   0.00000  Uiso   1.00
Cr2036 Cr    0.66667   0.73333   0.07670   0.00000  Uiso   1.00
Cr2037 Cr    0.66667   0.73333   0.45066   0.00000  Uiso   1.00
Cr2038 Cr    0.73333   0.66667   0.09748   0.00000  Uiso   1.00
Cr2039 Cr    0.73333   0.66667   0.47143   0.00000  Uiso   1.00
Cr2040 Cr    0.60000   0.60000   0.09378   0.00000  Uiso   1.00
Cr2041 Cr    0.60000   0.60000   0.46774   0.00000  Uiso   1.00
Cr2042 Cr    0.66667   0.73333   0.11456   0.00000  Uiso   1.00
Cr2043 Cr    0.66667   0.73333   0.48852   0.00000  Uiso   1.00
Cr2044 Cr    0.60000   0.60000   0.11825   0.00000  Uiso   1.00
Cr2045 Cr    0.60000   0.60000   0.49221   0.00000  Uiso   1.00
Cr2046 Cr    0.66667   0.73333   0.13903   0.00000  Uiso   1.00
Cr2047 Cr    0.73333   0.66667   0.13533   0.00000  Uiso   1.00
Cr2048 Cr    0.73333   0.66667   0.50929   0.00000  Uiso   1.00
Cr2049 Cr    0.60000   0.60000   0.15611   0.00000  Uiso   1.00
Cr2050 Cr    0.73333   0.66667   0.15980   0.00000  Uiso   1.00
Cr2051 Cr    0.60000   0.60000   0.18058   0.00000  Uiso   1.00
Cr2052 Cr    0.66667   0.73333   0.17688   0.00000  Uiso   1.00
Cr2053 Cr    0.73333   0.66667   0.19766   0.00000  Uiso   1.00
O2054  O     0.66076   0.60000   0.10602   0.00000  Uiso   1.00
O2055  O     0.66076   0.60000   0.47998   0.00000  Uiso   1.00
O2056  O     0.60000   0.66076   0.10602   0.00000  Uiso   1.00
O2057  O     0.60000   0.66076   0.47998   0.00000  Uiso   1.00
O2058  O     0.73924   0.73924   0.10602   0.00000  Uiso   1.00
O2059  O     0.73924   0.73924   0.47998   0.00000  Uiso   1.00
O2060  O     0.67257   0.66667   0.08524   0.00000  Uiso   1.00
O2061  O     0.67257   0.66667   0.45920   0.00000  Uiso   1.00
O2062  O     0.73333   0.60591   0.08524   0.00000  Uiso   1.00
O2063  O     0.73333   0.60591   0.45920   0.00000  Uiso   1.00
O2064  O     0.79409   0.72743   0.08524   0.00000  Uiso   1.00
O2065  O     0.79409   0.72743   0.45920   0.00000  Uiso   1.00
O2066  O     0.79409   0.66667   0.14757   0.00000  Uiso   1.00
O2067  O     0.73333   0.72743   0.14757   0.00000  Uiso   1.00
O2068  O     0.67257   0.60591   0.14757   0.00000  Uiso   1.00
O2069  O     0.60591   0.73333   0.12679   0.00000  Uiso   1.00
O2070  O     0.60591   0.73333   0.50075   0.00000  Uiso   1.00
O2071  O     0.66667   0.67257   0.12679   0.00000  Uiso   1.00
O2072  O     0.66667   0.67257   0.50075   0.00000  Uiso   1.00
O2073  O     0.72743   0.79409   0.12679   0.00000  Uiso   1.00
O2074  O     0.72743   0.79409   0.50075   0.00000  Uiso   1.00
O2075  O     0.72743   0.73333   0.18912   0.00000  Uiso   1.00
O2076  O     0.66667   0.79409   0.18912   0.00000  Uiso   1.00
O2077  O     0.60591   0.67257   0.18912   0.00000  Uiso   1.00
O2078  O     0.73924   0.60000   0.16834   0.00000  Uiso   1.00
O2079  O     0.60000   0.73924   0.16834   0.00000  Uiso   1.00
O2080  O     0.66076   0.66076   0.16834   0.00000  Uiso   1.00
Cr2081 Cr    0.86667   0.73333   0.07670   0.00000  Uiso   1.00
Cr2082 Cr    0.86667   0.73333   0.45066   0.00000  Uiso   1.00
Cr2083 Cr    0.93333   0.66667   0.09748   0.00000  Uiso   1.00
Cr2084 Cr    0.93333   0.66667   0.47143   0.00000  Uiso   1.00
Cr2085 Cr    0.80000   0.60000   0.09378   0.00000  Uiso   1.00
Cr2086 Cr    0.80000   0.60000   0.46774   0.00000  Uiso   1.00
Cr2087 Cr    0.86667   0.73333   0.11456   0.00000  Uiso   1.00
Cr2088 Cr    0.86667   0.73333   0.48852   0.00000  Uiso   1.00
Cr2089 Cr    0.80000   0.60000   0.11825   0.00000  Uiso   1.00
Cr2090 Cr    0.80000   0.60000   0.49221   0.00000  Uiso   1.00
Cr2091 Cr    0.86667   0.73333   0.13903   0.00000  Uiso   1.00
Cr2092 Cr    0.93333   0.66667   0.13533   0.00000  Uiso   1.00
Cr2093 Cr    0.93333   0.66667   0.50929   0.00000  Uiso   1.00
Cr2094 Cr    0.80000   0.60000   0.15611   0.00000  Uiso   1.00
Cr2095 Cr    0.93333   0.66667   0.15980   0.00000  Uiso   1.00
Cr2096 Cr    0.80000   0.60000   0.18058   0.00000  Uiso   1.00
Cr2097 Cr    0.86667   0.73333   0.17688   0.00000  Uiso   1.00
Cr2098 Cr    0.93333   0.66667   0.19766   0.00000  Uiso   1.00
O2099  O     0.86076   0.60000   0.10602   0.00000  Uiso   1.00
O2100  O     0.86076   0.60000   0.47998   0.00000  Uiso   1.00
O2101  O     0.80000   0.66076   0.10602   0.00000  Uiso   1.00
O2102  O     0.80000   0.66076   0.47998   0.00000  Uiso   1.00
O2103  O     0.93924   0.73924   0.10602   0.00000  Uiso   1.00
O2104  O     0.93924   0.73924   0.47998   0.00000  Uiso   1.00
O2105  O     0.87257   0.66667   0.08524   0.00000  Uiso   1.00
O2106  O     0.87257   0.66667   0.45920   0.00000  Uiso   1.00
O2107  O     0.93333   0.60591   0.08524   0.00000  Uiso   1.00
O2108  O     0.93333   0.60591   0.45920   0.00000  Uiso   1.00
O2109  O     0.99409   0.72743   0.08524   0.00000  Uiso   1.00
O2110  O     0.99409   0.72743   0.45920   0.00000  Uiso   1.00
O2111  O     0.99409   0.66667   0.14757   0.00000  Uiso   1.00
O2112  O     0.93333   0.72743   0.14757   0.00000  Uiso   1.00
O2113  O     0.87257   0.60591   0.14757   0.00000  Uiso   1.00
O2114  O     0.80591   0.73333   0.12679   0.00000  Uiso   1.00
O2115  O     0.80591   0.73333   0.50075   0.00000  Uiso   1.00
O2116  O     0.86667   0.67257   0.12679   0.00000  Uiso   1.00
O2117  O     0.86667   0.67257   0.50075   0.00000  Uiso   1.00
O2118  O     0.92743   0.79409   0.12679   0.00000  Uiso   1.00
O2119  O     0.92743   0.79409   0.50075   0.00000  Uiso   1.00
O2120  O     0.92743   0.73333   0.18912   0.00000  Uiso   1.00
O2121  O     0.86667   0.79409   0.18912   0.00000  Uiso   1.00
O2122  O     0.80591   0.67257   0.18912   0.00000  Uiso   1.00
O2123  O     0.93924   0.60000   0.16834   0.00000  Uiso   1.00
O2124  O     0.80000   0.73924   0.16834   0.00000  Uiso   1.00
O2125  O     0.86076   0.66076   0.16834   0.00000  Uiso   1.00
Cr2126 Cr    0.06667   0.93333   0.07670   0.00000  Uiso   1.00
Cr2127 Cr    0.06667   0.93333   0.45066   0.00000  Uiso   1.00
Cr2128 Cr    0.13333   0.86667   0.09748   0.00000  Uiso   1.00
Cr2129 Cr    0.13333   0.86667   0.47143   0.00000  Uiso   1.00
Cr2130 Cr    0.00000   0.80000   0.09378   0.00000  Uiso   1.00
Cr2131 Cr    0.00000   0.80000   0.46774   0.00000  Uiso   1.00
Cr2132 Cr    0.06667   0.93333   0.11456   0.00000  Uiso   1.00
Cr2133 Cr    0.06667   0.93333   0.48852   0.00000  Uiso   1.00
Cr2134 Cr    0.00000   0.80000   0.11825   0.00000  Uiso   1.00
Cr2135 Cr    0.00000   0.80000   0.49221   0.00000  Uiso   1.00
Cr2136 Cr    0.06667   0.93333   0.13903   0.00000  Uiso   1.00
Cr2137 Cr    0.13333   0.86667   0.13533   0.00000  Uiso   1.00
Cr2138 Cr    0.13333   0.86667   0.50929   0.00000  Uiso   1.00
Cr2139 Cr    0.00000   0.80000   0.15611   0.00000  Uiso   1.00
Cr2140 Cr    0.13333   0.86667   0.15980   0.00000  Uiso   1.00
Cr2141 Cr    0.00000   0.80000   0.18058   0.00000  Uiso   1.00
Cr2142 Cr    0.06667   0.93333   0.17688   0.00000  Uiso   1.00
Cr2143 Cr    0.13333   0.86667   0.19766   0.00000  Uiso   1.00
O2144  O     0.06076   0.80000   0.10602   0.00000  Uiso   1.00
O2145  O     0.06076   0.80000   0.47998   0.00000  Uiso   1.00
O2146  O     0.00000   0.86076   0.10602   0.00000  Uiso   1.00
O2147  O     0.00000   0.86076   0.47998   0.00000  Uiso   1.00
O2148  O     0.13924   0.93924   0.10602   0.00000  Uiso   1.00
O2149  O     0.13924   0.93924   0.47998   0.00000  Uiso   1.00
O2150  O     0.07257   0.86667   0.08524   0.00000  Uiso   1.00
O2151  O     0.07257   0.86667   0.45920   0.00000  Uiso   1.00
O2152  O     0.13333   0.80591   0.08524   0.00000  Uiso   1.00
O2153  O     0.13333   0.80591   0.45920   0.00000  Uiso   1.00
O2154  O     0.19409   0.92743   0.08524   0.00000  Uiso   1.00
O2155  O     0.19409   0.92743   0.45920   0.00000  Uiso   1.00
O2156  O     0.19409   0.86667   0.14757   0.00000  Uiso   1.00
O2157  O     0.13333   0.92743   0.14757   0.00000  Uiso   1.00
O2158  O     0.07257   0.80591   0.14757   0.00000  Uiso   1.00
O2159  O     0.00591   0.93333   0.12679   0.00000  Uiso   1.00
O2160  O     0.00591   0.93333   0.50075   0.00000  Uiso   1.00
O2161  O     0.06667   0.87257   0.12679   0.00000  Uiso   1.00
O2162  O     0.06667   0.87257   0.50075   0.00000  Uiso   1.00
O2163  O     0.12743   0.99409   0.12679   0.00000  Uiso   1.00
O2164  O     0.12743   0.99409   0.50075   0.00000  Uiso   1.00
O2165  O     0.12743   0.93333   0.18912   0.00000  Uiso   1.00
O2166  O     0.06667   0.99409   0.18912   0.00000  Uiso   1.00
O2167  O     0.00591   0.87257   0.18912   0.00000  Uiso   1.00
O2168  O     0.13924   0.80000   0.16834   0.00000  Uiso   1.00
O2169  O     0.00000   0.93924   0.16834   0.00000  Uiso   1.00
O2170  O     0.06076   0.86076   0.16834   0.00000  Uiso   1.00
Cr2171 Cr    0.26667   0.93333   0.07670   0.00000  Uiso   1.00
Cr2172 Cr    0.26667   0.93333   0.45066   0.00000  Uiso   1.00
Cr2173 Cr    0.33333   0.86667   0.09748   0.00000  Uiso   1.00
Cr2174 Cr    0.33333   0.86667   0.47143   0.00000  Uiso   1.00
Cr2175 Cr    0.20000   0.80000   0.09378   0.00000  Uiso   1.00
Cr2176 Cr    0.20000   0.80000   0.46774   0.00000  Uiso   1.00
Cr2177 Cr    0.26667   0.93333   0.11456   0.00000  Uiso   1.00
Cr2178 Cr    0.26667   0.93333   0.48852   0.00000  Uiso   1.00
Cr2179 Cr    0.20000   0.80000   0.11825   0.00000  Uiso   1.00
Cr2180 Cr    0.20000   0.80000   0.49221   0.00000  Uiso   1.00
Cr2181 Cr    0.26667   0.93333   0.13903   0.00000  Uiso   1.00
Cr2182 Cr    0.33333   0.86667   0.13533   0.00000  Uiso   1.00
Cr2183 Cr    0.33333   0.86667   0.50929   0.00000  Uiso   1.00
Cr2184 Cr    0.20000   0.80000   0.15611   0.00000  Uiso   1.00
Cr2185 Cr    0.33333   0.86667   0.15980   0.00000  Uiso   1.00
Cr2186 Cr    0.20000   0.80000   0.18058   0.00000  Uiso   1.00
Cr2187 Cr    0.26667   0.93333   0.17688   0.00000  Uiso   1.00
Cr2188 Cr    0.33333   0.86667   0.19766   0.00000  Uiso   1.00
O2189  O     0.26076   0.80000   0.10602   0.00000  Uiso   1.00
O2190  O     0.26076   0.80000   0.47998   0.00000  Uiso   1.00
O2191  O     0.20000   0.86076   0.10602   0.00000  Uiso   1.00
O2192  O     0.20000   0.86076   0.47998   0.00000  Uiso   1.00
O2193  O     0.33924   0.93924   0.10602   0.00000  Uiso   1.00
O2194  O     0.33924   0.93924   0.47998   0.00000  Uiso   1.00
O2195  O     0.27257   0.86667   0.08524   0.00000  Uiso   1.00
O2196  O     0.27257   0.86667   0.45920   0.00000  Uiso   1.00
O2197  O     0.33333   0.80591   0.08524   0.00000  Uiso   1.00
O2198  O     0.33333   0.80591   0.45920   0.00000  Uiso   1.00
O2199  O     0.39409   0.92743   0.08524   0.00000  Uiso   1.00
O2200  O     0.39409   0.92743   0.45920   0.00000  Uiso   1.00
O2201  O     0.39409   0.86667   0.14757   0.00000  Uiso   1.00
O2202  O     0.33333   0.92743   0.14757   0.00000  Uiso   1.00
O2203  O     0.27257   0.80591   0.14757   0.00000  Uiso   1.00
O2204  O     0.20591   0.93333   0.12679   0.00000  Uiso   1.00
O2205  O     0.20591   0.93333   0.50075   0.00000  Uiso   1.00
O2206  O     0.26667   0.87257   0.12679   0.00000  Uiso   1.00
O2207  O     0.26667   0.87257   0.50075   0.00000  Uiso   1.00
O2208  O     0.32743   0.99409   0.12679   0.00000  Uiso   1.00
O2209  O     0.32743   0.99409   0.50075   0.00000  Uiso   1.00
O2210  O     0.32743   0.93333   0.18912   0.00000  Uiso   1.00
O2211  O     0.26667   0.99409   0.18912   0.00000  Uiso   1.00
O2212  O     0.20591   0.87257   0.18912   0.00000  Uiso   1.00
O2213  O     0.33924   0.80000   0.16834   0.00000  Uiso   1.00
O2214  O     0.20000   0.93924   0.16834   0.00000  Uiso   1.00
O2215  O     0.26076   0.86076   0.16834   0.00000  Uiso   1.00
Cr2216 Cr    0.46667   0.93333   0.07670   0.00000  Uiso   1.00
Cr2217 Cr    0.46667   0.93333   0.45066   0.00000  Uiso   1.00
Cr2218 Cr    0.53333   0.86667   0.09748   0.00000  Uiso   1.00
Cr2219 Cr    0.53333   0.86667   0.47143   0.00000  Uiso   1.00
Cr2220 Cr    0.40000   0.80000   0.09378   0.00000  Uiso   1.00
Cr2221 Cr    0.40000   0.80000   0.46774   0.00000  Uiso   1.00
Cr2222 Cr    0.46667   0.93333   0.11456   0.00000  Uiso   1.00
Cr2223 Cr    0.46667   0.93333   0.48852   0.00000  Uiso   1.00
Cr2224 Cr    0.40000   0.80000   0.11825   0.00000  Uiso   1.00
Cr2225 Cr    0.40000   0.80000   0.49221   0.00000  Uiso   1.00
Cr2226 Cr    0.46667   0.93333   0.13903   0.00000  Uiso   1.00
Cr2227 Cr    0.53333   0.86667   0.13533   0.00000  Uiso   1.00
Cr2228 Cr    0.53333   0.86667   0.50929   0.00000  Uiso   1.00
Cr2229 Cr    0.40000   0.80000   0.15611   0.00000  Uiso   1.00
Cr2230 Cr    0.53333   0.86667   0.15980   0.00000  Uiso   1.00
Cr2231 Cr    0.40000   0.80000   0.18058   0.00000  Uiso   1.00
Cr2232 Cr    0.46667   0.93333   0.17688   0.00000  Uiso   1.00
Cr2233 Cr    0.53333   0.86667   0.19766   0.00000  Uiso   1.00
O2234  O     0.46076   0.80000   0.10602   0.00000  Uiso   1.00
O2235  O     0.46076   0.80000   0.47998   0.00000  Uiso   1.00
O2236  O     0.40000   0.86076   0.10602   0.00000  Uiso   1.00
O2237  O     0.40000   0.86076   0.47998   0.00000  Uiso   1.00
O2238  O     0.53924   0.93924   0.10602   0.00000  Uiso   1.00
O2239  O     0.53924   0.93924   0.47998   0.00000  Uiso   1.00
O2240  O     0.47257   0.86667   0.08524   0.00000  Uiso   1.00
O2241  O     0.47257   0.86667   0.45920   0.00000  Uiso   1.00
O2242  O     0.53333   0.80591   0.08524   0.00000  Uiso   1.00
O2243  O     0.53333   0.80591   0.45920   0.00000  Uiso   1.00
O2244  O     0.59409   0.92743   0.08524   0.00000  Uiso   1.00
O2245  O     0.59409   0.92743   0.45920   0.00000  Uiso   1.00
O2246  O     0.59409   0.86667   0.14757   0.00000  Uiso   1.00
O2247  O     0.53333   0.92743   0.14757   0.00000  Uiso   1.00
O2248  O     0.47257   0.80591   0.14757   0.00000  Uiso   1.00
O2249  O     0.40591   0.93333   0.12679   0.00000  Uiso   1.00
O2250  O     0.40591   0.93333   0.50075   0.00000  Uiso   1.00
O2251  O     0.46667   0.87257   0.12679   0.00000  Uiso   1.00
O2252  O     0.46667   0.87257   0.50075   0.00000  Uiso   1.00
O2253  O     0.52743   0.99409   0.12679   0.00000  Uiso   1.00
O2254  O     0.52743   0.99409   0.50075   0.00000  Uiso   1.00
O2255  O     0.52743   0.93333   0.18912   0.00000  Uiso   1.00
O2256  O     0.46667   0.99409   0.18912   0.00000  Uiso   1.00
O2257  O     0.40591   0.87257   0.18912   0.00000  Uiso   1.00
O2258  O     0.53924   0.80000   0.16834   0.00000  Uiso   1.00
O2259  O     0.40000   0.93924   0.16834   0.00000  Uiso   1.00
O2260  O     0.46076   0.86076   0.16834   0.00000  Uiso   1.00
Cr2261 Cr    0.66667   0.93333   0.07670   0.00000  Uiso   1.00
Cr2262 Cr    0.66667   0.93333   0.45066   0.00000  Uiso   1.00
Cr2263 Cr    0.73333   0.86667   0.09748   0.00000  Uiso   1.00
Cr2264 Cr    0.73333   0.86667   0.47143   0.00000  Uiso   1.00
Cr2265 Cr    0.60000   0.80000   0.09378   0.00000  Uiso   1.00
Cr2266 Cr    0.60000   0.80000   0.46774   0.00000  Uiso   1.00
Cr2267 Cr    0.66667   0.93333   0.11456   0.00000  Uiso   1.00
Cr2268 Cr    0.66667   0.93333   0.48852   0.00000  Uiso   1.00
Cr2269 Cr    0.60000   0.80000   0.11825   0.00000  Uiso   1.00
Cr2270 Cr    0.60000   0.80000   0.49221   0.00000  Uiso   1.00
Cr2271 Cr    0.66667   0.93333   0.13903   0.00000  Uiso   1.00
Cr2272 Cr    0.73333   0.86667   0.13533   0.00000  Uiso   1.00
Cr2273 Cr    0.73333   0.86667   0.50929   0.00000  Uiso   1.00
Cr2274 Cr    0.60000   0.80000   0.15611   0.00000  Uiso   1.00
Cr2275 Cr    0.73333   0.86667   0.15980   0.00000  Uiso   1.00
Cr2276 Cr    0.60000   0.80000   0.18058   0.00000  Uiso   1.00
Cr2277 Cr    0.66667   0.93333   0.17688   0.00000  Uiso   1.00
Cr2278 Cr    0.73333   0.86667   0.19766   0.00000  Uiso   1.00
O2279  O     0.66076   0.80000   0.10602   0.00000  Uiso   1.00
O2280  O     0.66076   0.80000   0.47998   0.00000  Uiso   1.00
O2281  O     0.60000   0.86076   0.10602   0.00000  Uiso   1.00
O2282  O     0.60000   0.86076   0.47998   0.00000  Uiso   1.00
O2283  O     0.73924   0.93924   0.10602   0.00000  Uiso   1.00
O2284  O     0.73924   0.93924   0.47998   0.00000  Uiso   1.00
O2285  O     0.67257   0.86667   0.08524   0.00000  Uiso   1.00
O2286  O     0.67257   0.86667   0.45920   0.00000  Uiso   1.00
O2287  O     0.73333   0.80591   0.08524   0.00000  Uiso   1.00
O2288  O     0.73333   0.80591   0.45920   0.00000  Uiso   1.00
O2289  O     0.79409   0.92743   0.08524   0.00000  Uiso   1.00
O2290  O     0.79409   0.92743   0.45920   0.00000  Uiso   1.00
O2291  O     0.79409   0.86667   0.14757   0.00000  Uiso   1.00
O2292  O     0.73333   0.92743   0.14757   0.00000  Uiso   1.00
O2293  O     0.67257   0.80591   0.14757   0.00000  Uiso   1.00
O2294  O     0.60591   0.93333   0.12679   0.00000  Uiso   1.00
O2295  O     0.60591   0.93333   0.50075   0.00000  Uiso   1.00
O2296  O     0.66667   0.87257   0.12679   0.00000  Uiso   1.00
O2297  O     0.66667   0.87257   0.50075   0.00000  Uiso   1.00
O2298  O     0.72743   0.99409   0.12679   0.00000  Uiso   1.00
O2299  O     0.72743   0.99409   0.50075   0.00000  Uiso   1.00
O2300  O     0.72743   0.93333   0.18912   0.00000  Uiso   1.00
O2301  O     0.66667   0.99409   0.18912   0.00000  Uiso   1.00
O2302  O     0.60591   0.87257   0.18912   0.00000  Uiso   1.00
O2303  O     0.73924   0.80000   0.16834   0.00000  Uiso   1.00
O2304  O     0.60000   0.93924   0.16834   0.00000  Uiso   1.00
O2305  O     0.66076   0.86076   0.16834   0.00000  Uiso   1.00
Cr2306 Cr    0.86667   0.93333   0.07670   0.00000  Uiso   1.00
Cr2307 Cr    0.86667   0.93333   0.45066   0.00000  Uiso   1.00
Cr2308 Cr    0.93333   0.86667   0.09748   0.00000  Uiso   1.00
Cr2309 Cr    0.93333   0.86667   0.47143   0.00000  Uiso   1.00
Cr2310 Cr    0.80000   0.80000   0.09378   0.00000  Uiso   1.00
Cr2311 Cr    0.80000   0.80000   0.46774   0.00000  Uiso   1.00
Cr2312 Cr    0.86667   0.93333   0.11456   0.00000  Uiso   1.00
Cr2313 Cr    0.86667   0.93333   0.48852   0.00000  Uiso   1.00
Cr2314 Cr    0.80000   0.80000   0.11825   0.00000  Uiso   1.00
Cr2315 Cr    0.80000   0.80000   0.49221   0.00000  Uiso   1.00
Cr2316 Cr    0.86667   0.93333   0.13903   0.00000  Uiso   1.00
Cr2317 Cr    0.93333   0.86667   0.13533   0.00000  Uiso   1.00
Cr2318 Cr    0.93333   0.86667   0.50929   0.00000  Uiso   1.00
Cr2319 Cr    0.80000   0.80000   0.15611   0.00000  Uiso   1.00
Cr2320 Cr    0.93333   0.86667   0.15980   0.00000  Uiso   1.00
Cr2321 Cr    0.80000   0.80000   0.18058   0.00000  Uiso   1.00
Cr2322 Cr    0.86667   0.93333   0.17688   0.00000  Uiso   1.00
Cr2323 Cr    0.93333   0.86667   0.19766   0.00000  Uiso   1.00
O2324  O     0.86076   0.80000   0.10602   0.00000  Uiso   1.00
O2325  O     0.86076   0.80000   0.47998   0.00000  Uiso   1.00
O2326  O     0.80000   0.86076   0.10602   0.00000  Uiso   1.00
O2327  O     0.80000   0.86076   0.47998   0.00000  Uiso   1.00
O2328  O     0.93924   0.93924   0.10602   0.00000  Uiso   1.00
O2329  O     0.93924   0.93924   0.47998   0.00000  Uiso   1.00
O2330  O     0.87257   0.86667   0.08524   0.00000  Uiso   1.00
O2331  O     0.87257   0.86667   0.45920   0.00000  Uiso   1.00
O2332  O     0.93333   0.80591   0.08524   0.00000  Uiso   1.00
O2333  O     0.93333   0.80591   0.45920   0.00000  Uiso   1.00
O2334  O     0.99409   0.92743   0.08524   0.00000  Uiso   1.00
O2335  O     0.99409   0.92743   0.45920   0.00000  Uiso   1.00
O2336  O     0.99409   0.86667   0.14757   0.00000  Uiso   1.00
O2337  O     0.93333   0.92743   0.14757   0.00000  Uiso   1.00
O2338  O     0.87257   0.80591   0.14757   0.00000  Uiso   1.00
O2339  O     0.80591   0.93333   0.12679   0.00000  Uiso   1.00
O2340  O     0.80591   0.93333   0.50075   0.00000  Uiso   1.00
O2341  O     0.86667   0.87257   0.12679   0.00000  Uiso   1.00
O2342  O     0.86667   0.87257   0.50075   0.00000  Uiso   1.00
O2343  O     0.92743   0.99409   0.12679   0.00000  Uiso   1.00
O2344  O     0.92743   0.99409   0.50075   0.00000  Uiso   1.00
O2345  O     0.92743   0.93333   0.18912   0.00000  Uiso   1.00
O2346  O     0.86667   0.99409   0.18912   0.00000  Uiso   1.00
O2347  O     0.80591   0.87257   0.18912   0.00000  Uiso   1.00
O2348  O     0.93924   0.80000   0.16834   0.00000  Uiso   1.00
O2349  O     0.80000   0.93924   0.16834   0.00000  Uiso   1.00
O2350  O     0.86076   0.86076   0.16834   0.00000  Uiso   1.00
Cr2351 Cr    0.06667   0.13333   0.20135   0.00000  Uiso   1.00
Cr2352 Cr    0.13333   0.06667   0.22213   0.00000  Uiso   1.00
Cr2353 Cr    0.00000   0.00000   0.21844   0.00000  Uiso   1.00
Cr2354 Cr    0.06667   0.13333   0.23921   0.00000  Uiso   1.00
Cr2355 Cr    0.00000   0.00000   0.24290   0.00000  Uiso   1.00
Cr2356 Cr    0.06667   0.13333   0.26368   0.00000  Uiso   1.00
Cr2357 Cr    0.13333   0.06667   0.25999   0.00000  Uiso   1.00
Cr2358 Cr    0.00000   0.00000   0.28076   0.00000  Uiso   1.00
Cr2359 Cr    0.13333   0.06667   0.28446   0.00000  Uiso   1.00
Cr2360 Cr    0.00000   0.00000   0.30523   0.00000  Uiso   1.00
Cr2361 Cr    0.06667   0.13333   0.30154   0.00000  Uiso   1.00
Cr2362 Cr    0.13333   0.06667   0.32231   0.00000  Uiso   1.00
O2363  O     0.06076   0.00000   0.23067   0.00000  Uiso   1.00
O2364  O     0.00000   0.06076   0.23067   0.00000  Uiso   1.00
O2365  O     0.13924   0.13924   0.23067   0.00000  Uiso   1.00
O2366  O     0.07257   0.06667   0.20989   0.00000  Uiso   1.00
O2367  O     0.13333   0.00591   0.20989   0.00000  Uiso   1.00
O2368  O     0.19409   0.12743   0.20989   0.00000  Uiso   1.00
O2369  O     0.19409   0.06667   0.27222   0.00000  Uiso   1.00
O2370  O     0.13333   0.12743   0.27222   0.00000  Uiso   1.00
O2371  O     0.07257   0.00591   0.27222   0.00000  Uiso   1.00
O2372  O     0.00591   0.13333   0.25145   0.00000  Uiso   1.00
O2373  O     0.06667   0.07257   0.25145   0.00000  Uiso   1.00
O2374  O     0.12743   0.19409   0.25145   0.00000  Uiso   1.00
O2375  O     0.12743   0.13333   0.31377   0.00000  Uiso   1.00
O2376  O     0.06667   0.19409   0.31377   0.00000  Uiso   1.00
O2377  O     0.00591   0.07257   0.31377   0.00000  Uiso   1.00
O2378  O     0.13924   0.00000   0.29300   0.00000  Uiso   1.00
O2379  O     0.00000   0.13924   0.29300   0.00000  Uiso   1.00
O2380  O     0.06076   0.06076   0.29300   0.00000  Uiso   1.00
Cr2381 Cr    0.26667   0.13333   0.20135   0.00000  Uiso   1.00
Cr2382 Cr    0.33333   0.06667   0.22213   0.00000  Uiso   1.00
Cr2383 Cr    0.20000   0.00000   0.21844   0.00000  Uiso   1.00
Cr2384 Cr    0.26667   0.13333   0.23921   0.00000  Uiso   1.00
Cr2385 Cr    0.20000   0.00000   0.24290   0.00000  Uiso   1.00
Cr2386 Cr    0.26667   0.13333   0.26368   0.00000  Uiso   1.00
Cr2387 Cr    0.33333   0.06667   0.25999   0.00000  Uiso   1.00
Cr2388 Cr    0.20000   0.00000   0.28076   0.00000  Uiso   1.00
Cr2389 Cr    0.33333   0.06667   0.28446   0.00000  Uiso   1.00
Cr2390 Cr    0.20000   0.00000   0.30523   0.00000  Uiso   1.00
Cr2391 Cr    0.26667   0.13333   0.30154   0.00000  Uiso   1.00
Cr2392 Cr    0.33333   0.06667   0.32231   0.00000  Uiso   1.00
O2393  O     0.26076   0.00000   0.23067   0.00000  Uiso   1.00
O2394  O     0.20000   0.06076   0.23067   0.00000  Uiso   1.00
O2395  O     0.33924   0.13924   0.23067   0.00000  Uiso   1.00
O2396  O     0.27257   0.06667   0.20989   0.00000  Uiso   1.00
O2397  O     0.33333   0.00591   0.20989   0.00000  Uiso   1.00
O2398  O     0.39409   0.12743   0.20989   0.00000  Uiso   1.00
O2399  O     0.39409   0.06667   0.27222   0.00000  Uiso   1.00
O2400  O     0.33333   0.12743   0.27222   0.00000  Uiso   1.00
O2401  O     0.27257   0.00591   0.27222   0.00000  Uiso   1.00
O2402  O     0.20591   0.13333   0.25145   0.00000  Uiso   1.00
O2403  O     0.26667   0.07257   0.25145   0.00000  Uiso   1.00
O2404  O     0.32743   0.19409   0.25145   0.00000  Uiso   1.00
O2405  O     0.32743   0.13333   0.31377   0.00000  Uiso   1.00
O2406  O     0.26667   0.19409   0.31377   0.00000  Uiso   1.00
O2407  O     0.20591   0.07257   0.31377   0.00000  Uiso   1.00
O2408  O     0.33924   0.00000   0.29300   0.00000  Uiso   1.00
O2409  O     0.20000   0.13924   0.29300   0.00000  Uiso   1.00
O2410  O     0.26076   0.06076   0.29300   0.00000  Uiso   1.00
Cr2411 Cr    0.46667   0.13333   0.20135   0.00000  Uiso   1.00
Cr2412 Cr    0.53333   0.06667   0.22213   0.00000  Uiso   1.00
Cr2413 Cr    0.40000  -0.00000   0.21844   0.00000  Uiso   1.00
Cr2414 Cr    0.46667   0.13333   0.23921   0.00000  Uiso   1.00
Cr2415 Cr    0.40000  -0.00000   0.24290   0.00000  Uiso   1.00
Cr2416 Cr    0.46667   0.13333   0.26368   0.00000  Uiso   1.00
Cr2417 Cr    0.53333   0.06667   0.25999   0.00000  Uiso   1.00
Cr2418 Cr    0.40000  -0.00000   0.28076   0.00000  Uiso   1.00
Cr2419 Cr    0.53333   0.06667   0.28446   0.00000  Uiso   1.00
Cr2420 Cr    0.40000  -0.00000   0.30523   0.00000  Uiso   1.00
Cr2421 Cr    0.46667   0.13333   0.30154   0.00000  Uiso   1.00
Cr2422 Cr    0.53333   0.06667   0.32231   0.00000  Uiso   1.00
O2423  O     0.46076   0.00000   0.23067   0.00000  Uiso   1.00
O2424  O     0.40000   0.06076   0.23067   0.00000  Uiso   1.00
O2425  O     0.53924   0.13924   0.23067   0.00000  Uiso   1.00
O2426  O     0.47257   0.06667   0.20989   0.00000  Uiso   1.00
O2427  O     0.53333   0.00591   0.20989   0.00000  Uiso   1.00
O2428  O     0.59409   0.12743   0.20989   0.00000  Uiso   1.00
O2429  O     0.59409   0.06667   0.27222   0.00000  Uiso   1.00
O2430  O     0.53333   0.12743   0.27222   0.00000  Uiso   1.00
O2431  O     0.47257   0.00591   0.27222   0.00000  Uiso   1.00
O2432  O     0.40591   0.13333   0.25145   0.00000  Uiso   1.00
O2433  O     0.46667   0.07257   0.25145   0.00000  Uiso   1.00
O2434  O     0.52743   0.19409   0.25145   0.00000  Uiso   1.00
O2435  O     0.52743   0.13333   0.31377   0.00000  Uiso   1.00
O2436  O     0.46667   0.19409   0.31377   0.00000  Uiso   1.00
O2437  O     0.40591   0.07257   0.31377   0.00000  Uiso   1.00
O2438  O     0.53924   0.00000   0.29300   0.00000  Uiso   1.00
O2439  O     0.40000   0.13924   0.29300   0.00000  Uiso   1.00
O2440  O     0.46076   0.06076   0.29300   0.00000  Uiso   1.00
Cr2441 Cr    0.66667   0.13333   0.20135   0.00000  Uiso   1.00
Cr2442 Cr    0.73333   0.06667   0.22213   0.00000  Uiso   1.00
Cr2443 Cr    0.60000  -0.00000   0.21844   0.00000  Uiso   1.00
Cr2444 Cr    0.66667   0.13333   0.23921   0.00000  Uiso   1.00
Cr2445 Cr    0.60000  -0.00000   0.24290   0.00000  Uiso   1.00
Cr2446 Cr    0.66667   0.13333   0.26368   0.00000  Uiso   1.00
Cr2447 Cr    0.73333   0.06667   0.25999   0.00000  Uiso   1.00
Cr2448 Cr    0.60000  -0.00000   0.28076   0.00000  Uiso   1.00
Cr2449 Cr    0.73333   0.06667   0.28446   0.00000  Uiso   1.00
Cr2450 Cr    0.60000  -0.00000   0.30523   0.00000  Uiso   1.00
Cr2451 Cr    0.66667   0.13333   0.30154   0.00000  Uiso   1.00
Cr2452 Cr    0.73333   0.06667   0.32231   0.00000  Uiso   1.00
O2453  O     0.66076   0.00000   0.23067   0.00000  Uiso   1.00
O2454  O     0.60000   0.06076   0.23067   0.00000  Uiso   1.00
O2455  O     0.73924   0.13924   0.23067   0.00000  Uiso   1.00
O2456  O     0.67257   0.06667   0.20989   0.00000  Uiso   1.00
O2457  O     0.73333   0.00591   0.20989   0.00000  Uiso   1.00
O2458  O     0.79409   0.12743   0.20989   0.00000  Uiso   1.00
O2459  O     0.79409   0.06667   0.27222   0.00000  Uiso   1.00
O2460  O     0.73333   0.12743   0.27222   0.00000  Uiso   1.00
O2461  O     0.67257   0.00591   0.27222   0.00000  Uiso   1.00
O2462  O     0.60591   0.13333   0.25145   0.00000  Uiso   1.00
O2463  O     0.66667   0.07257   0.25145   0.00000  Uiso   1.00
O2464  O     0.72743   0.19409   0.25145   0.00000  Uiso   1.00
O2465  O     0.72743   0.13333   0.31377   0.00000  Uiso   1.00
O2466  O     0.66667   0.19409   0.31377   0.00000  Uiso   1.00
O2467  O     0.60591   0.07257   0.31377   0.00000  Uiso   1.00
O2468  O     0.73924  -0.00000   0.29300   0.00000  Uiso   1.00
O2469  O     0.60000   0.13924   0.29300   0.00000  Uiso   1.00
O2470  O     0.66076   0.06076   0.29300   0.00000  Uiso   1.00
Cr2471 Cr    0.86667   0.13333   0.20135   0.00000  Uiso   1.00
Cr2472 Cr    0.93333   0.06667   0.22213   0.00000  Uiso   1.00
Cr2473 Cr    0.80000  -0.00000   0.21844   0.00000  Uiso   1.00
Cr2474 Cr    0.86667   0.13333   0.23921   0.00000  Uiso   1.00
Cr2475 Cr    0.80000  -0.00000   0.24290   0.00000  Uiso   1.00
Cr2476 Cr    0.86667   0.13333   0.26368   0.00000  Uiso   1.00
Cr2477 Cr    0.93333   0.06667   0.25999   0.00000  Uiso   1.00
Cr2478 Cr    0.80000  -0.00000   0.28076   0.00000  Uiso   1.00
Cr2479 Cr    0.93333   0.06667   0.28446   0.00000  Uiso   1.00
Cr2480 Cr    0.80000  -0.00000   0.30523   0.00000  Uiso   1.00
Cr2481 Cr    0.86667   0.13333   0.30154   0.00000  Uiso   1.00
Cr2482 Cr    0.93333   0.06667   0.32231   0.00000  Uiso   1.00
O2483  O     0.86076   0.00000   0.23067   0.00000  Uiso   1.00
O2484  O     0.80000   0.06076   0.23067   0.00000  Uiso   1.00
O2485  O     0.93924   0.13924   0.23067   0.00000  Uiso   1.00
O2486  O     0.87257   0.06667   0.20989   0.00000  Uiso   1.00
O2487  O     0.93333   0.00591   0.20989   0.00000  Uiso   1.00
O2488  O     0.99409   0.12743   0.20989   0.00000  Uiso   1.00
O2489  O     0.99409   0.06667   0.27222   0.00000  Uiso   1.00
O2490  O     0.93333   0.12743   0.27222   0.00000  Uiso   1.00
O2491  O     0.87257   0.00591   0.27222   0.00000  Uiso   1.00
O2492  O     0.80591   0.13333   0.25145   0.00000  Uiso   1.00
O2493  O     0.86667   0.07257   0.25145   0.00000  Uiso   1.00
O2494  O     0.92743   0.19409   0.25145   0.00000  Uiso   1.00
O2495  O     0.92743   0.13333   0.31377   0.00000  Uiso   1.00
O2496  O     0.86667   0.19409   0.31377   0.00000  Uiso   1.00
O2497  O     0.80591   0.07257   0.31377   0.00000  Uiso   1.00
O2498  O     0.93924  -0.00000   0.29300   0.00000  Uiso   1.00
O2499  O     0.80000   0.13924   0.29300   0.00000  Uiso   1.00
O2500  O     0.86076   0.06076   0.29300   0.00000  Uiso   1.00
Cr2501 Cr    0.06667   0.33333   0.20135   0.00000  Uiso   1.00
Cr2502 Cr    0.13333   0.26667   0.22213   0.00000  Uiso   1.00
Cr2503 Cr    0.00000   0.20000   0.21844   0.00000  Uiso   1.00
Cr2504 Cr    0.06667   0.33333   0.23921   0.00000  Uiso   1.00
Cr2505 Cr    0.00000   0.20000   0.24290   0.00000  Uiso   1.00
Cr2506 Cr    0.06667   0.33333   0.26368   0.00000  Uiso   1.00
Cr2507 Cr    0.13333   0.26667   0.25999   0.00000  Uiso   1.00
Cr2508 Cr    0.00000   0.20000   0.28076   0.00000  Uiso   1.00
Cr2509 Cr    0.13333   0.26667   0.28446   0.00000  Uiso   1.00
Cr2510 Cr    0.00000   0.20000   0.30523   0.00000  Uiso   1.00
Cr2511 Cr    0.06667   0.33333   0.30154   0.00000  Uiso   1.00
Cr2512 Cr    0.13333   0.26667   0.32231   0.00000  Uiso   1.00
O2513  O     0.06076   0.20000   0.23067   0.00000  Uiso   1.00
O2514  O     0.00000   0.26076   0.23067   0.00000  Uiso   1.00
O2515  O     0.13924   0.33924   0.23067   0.00000  Uiso   1.00
O2516  O     0.07257   0.26667   0.20989   0.00000  Uiso   1.00
O2517  O     0.13333   0.20591   0.20989   0.00000  Uiso   1.00
O2518  O     0.19409   0.32743   0.20989   0.00000  Uiso   1.00
O2519  O     0.19409   0.26667   0.27222   0.00000  Uiso   1.00
O2520  O     0.13333   0.32743   0.27222   0.00000  Uiso   1.00
O2521  O     0.07257   0.20591   0.27222   0.00000  Uiso   1.00
O2522  O     0.00591   0.33333   0.25145   0.00000  Uiso   1.00
O2523  O     0.06667   0.27257   0.25145   0.00000  Uiso   1.00
O2524  O     0.12743   0.39409   0.25145   0.00000  Uiso   1.00
O2525  O     0.12743   0.33333   0.31377   0.00000  Uiso   1.00
O2526  O     0.06667   0.39409   0.31377   0.00000  Uiso   1.00
O2527  O     0.00591   0.27257   0.31377   0.00000  Uiso   1.00
O2528  O     0.13924   0.20000   0.29300   0.00000  Uiso   1.00
O2529  O     0.00000   0.33924   0.29300   0.00000  Uiso   1.00
O2530  O     0.06076   0.26076   0.29300   0.00000  Uiso   1.00
Cr2531 Cr    0.26667   0.33333   0.20135   0.00000  Uiso   1.00
Cr2532 Cr    0.33333   0.26667   0.22213   0.00000  Uiso   1.00
Cr2533 Cr    0.20000   0.20000   0.21844   0.00000  Uiso   1.00
Cr2534 Cr    0.26667   0.33333   0.23921   0.00000  Uiso   1.00
Cr2535 Cr    0.20000   0.20000   0.24290   0.00000  Uiso   1.00
Cr2536 Cr    0.26667   0.33333   0.26368   0.00000  Uiso   1.00
Cr2537 Cr    0.33333   0.26667   0.25999   0.00000  Uiso   1.00
Cr2538 Cr    0.20000   0.20000   0.28076   0.00000  Uiso   1.00
Cr2539 Cr    0.33333   0.26667   0.28446   0.00000  Uiso   1.00
Cr2540 Cr    0.20000   0.20000   0.30523   0.00000  Uiso   1.00
Cr2541 Cr    0.26667   0.33333   0.30154   0.00000  Uiso   1.00
Cr2542 Cr    0.33333   0.26667   0.32231   0.00000  Uiso   1.00
O2543  O     0.26076   0.20000   0.23067   0.00000  Uiso   1.00
O2544  O     0.20000   0.26076   0.23067   0.00000  Uiso   1.00
O2545  O     0.33924   0.33924   0.23067   0.00000  Uiso   1.00
O2546  O     0.27257   0.26667   0.20989   0.00000  Uiso   1.00
O2547  O     0.33333   0.20591   0.20989   0.00000  Uiso   1.00
O2548  O     0.39409   0.32743   0.20989   0.00000  Uiso   1.00
O2549  O     0.39409   0.26667   0.27222   0.00000  Uiso   1.00
O2550  O     0.33333   0.32743   0.27222   0.00000  Uiso   1.00
O2551  O     0.27257   0.20591   0.27222   0.00000  Uiso   1.00
O2552  O     0.20591   0.33333   0.25145   0.00000  Uiso   1.00
O2553  O     0.26667   0.27257   0.25145   0.00000  Uiso   1.00
O2554  O     0.32743   0.39409   0.25145   0.00000  Uiso   1.00
O2555  O     0.32743   0.33333   0.31377   0.00000  Uiso   1.00
O2556  O     0.26667   0.39409   0.31377   0.00000  Uiso   1.00
O2557  O     0.20591   0.27257   0.31377   0.00000  Uiso   1.00
O2558  O     0.33924   0.20000   0.29300   0.00000  Uiso   1.00
O2559  O     0.20000   0.33924   0.29300   0.00000  Uiso   1.00
O2560  O     0.26076   0.26076   0.29300   0.00000  Uiso   1.00
Cr2561 Cr    0.46667   0.33333   0.20135   0.00000  Uiso   1.00
Cr2562 Cr    0.53333   0.26667   0.22213   0.00000  Uiso   1.00
Cr2563 Cr    0.40000   0.20000   0.21844   0.00000  Uiso   1.00
Cr2564 Cr    0.46667   0.33333   0.23921   0.00000  Uiso   1.00
Cr2565 Cr    0.40000   0.20000   0.24290   0.00000  Uiso   1.00
Cr2566 Cr    0.46667   0.33333   0.26368   0.00000  Uiso   1.00
Cr2567 Cr    0.53333   0.26667   0.25999   0.00000  Uiso   1.00
Cr2568 Cr    0.40000   0.20000   0.28076   0.00000  Uiso   1.00
Cr2569 Cr    0.53333   0.26667   0.28446   0.00000  Uiso   1.00
Cr2570 Cr    0.40000   0.20000   0.30523   0.00000  Uiso   1.00
Cr2571 Cr    0.46667   0.33333   0.30154   0.00000  Uiso   1.00
Cr2572 Cr    0.53333   0.26667   0.32231   0.00000  Uiso   1.00
O2573  O     0.46076   0.20000   0.23067   0.00000  Uiso   1.00
O2574  O     0.40000   0.26076   0.23067   0.00000  Uiso   1.00
O2575  O     0.53924   0.33924   0.23067   0.00000  Uiso   1.00
O2576  O     0.47257   0.26667   0.20989   0.00000  Uiso   1.00
O2577  O     0.53333   0.20591   0.20989   0.00000  Uiso   1.00
O2578  O     0.59409   0.32743   0.20989   0.00000  Uiso   1.00
O2579  O     0.59409   0.26667   0.27222   0.00000  Uiso   1.00
O2580  O     0.53333   0.32743   0.27222   0.00000  Uiso   1.00
O2581  O     0.47257   0.20591   0.27222   0.00000  Uiso   1.00
O2582  O     0.40591   0.33333   0.25145   0.00000  Uiso   1.00
O2583  O     0.46667   0.27257   0.25145   0.00000  Uiso   1.00
O2584  O     0.52743   0.39409   0.25145   0.00000  Uiso   1.00
O2585  O     0.52743   0.33333   0.31377   0.00000  Uiso   1.00
O2586  O     0.46667   0.39409   0.31377   0.00000  Uiso   1.00
O2587  O     0.40591   0.27257   0.31377   0.00000  Uiso   1.00
O2588  O     0.53924   0.20000   0.29300   0.00000  Uiso   1.00
O2589  O     0.40000   0.33924   0.29300   0.00000  Uiso   1.00
O2590  O     0.46076   0.26076   0.29300   0.00000  Uiso   1.00
Cr2591 Cr    0.66667   0.33333   0.20135   0.00000  Uiso   1.00
Cr2592 Cr    0.73333   0.26667   0.22213   0.00000  Uiso   1.00
Cr2593 Cr    0.60000   0.20000   0.21844   0.00000  Uiso   1.00
Cr2594 Cr    0.66667   0.33333   0.23921   0.00000  Uiso   1.00
Cr2595 Cr    0.60000   0.20000   0.24290   0.00000  Uiso   1.00
Cr2596 Cr    0.66667   0.33333   0.26368   0.00000  Uiso   1.00
Cr2597 Cr    0.73333   0.26667   0.25999   0.00000  Uiso   1.00
Cr2598 Cr    0.60000   0.20000   0.28076   0.00000  Uiso   1.00
Cr2599 Cr    0.73333   0.26667   0.28446   0.00000  Uiso   1.00
Cr2600 Cr    0.60000   0.20000   0.30523   0.00000  Uiso   1.00
Cr2601 Cr    0.66667   0.33333   0.30154   0.00000  Uiso   1.00
Cr2602 Cr    0.73333   0.26667   0.32231   0.00000  Uiso   1.00
O2603  O     0.66076   0.20000   0.23067   0.00000  Uiso   1.00
O2604  O     0.60000   0.26076   0.23067   0.00000  Uiso   1.00
O2605  O     0.73924   0.33924   0.23067   0.00000  Uiso   1.00
O2606  O     0.67257   0.26667   0.20989   0.00000  Uiso   1.00
O2607  O     0.73333   0.20591   0.20989   0.00000  Uiso   1.00
O2608  O     0.79409   0.32743   0.20989   0.00000  Uiso   1.00
O2609  O     0.79409   0.26667   0.27222   0.00000  Uiso   1.00
O2610  O     0.73333   0.32743   0.27222   0.00000  Uiso   1.00
O2611  O     0.67257   0.20591   0.27222   0.00000  Uiso   1.00
O2612  O     0.60591   0.33333   0.25145   0.00000  Uiso   1.00
O2613  O     0.66667   0.27257   0.25145   0.00000  Uiso   1.00
O2614  O     0.72743   0.39409   0.25145   0.00000  Uiso   1.00
O2615  O     0.72743   0.33333   0.31377   0.00000  Uiso   1.00
O2616  O     0.66667   0.39409   0.31377   0.00000  Uiso   1.00
O2617  O     0.60591   0.27257   0.31377   0.00000  Uiso   1.00
O2618  O     0.73924   0.20000   0.29300   0.00000  Uiso   1.00
O2619  O     0.60000   0.33924   0.29300   0.00000  Uiso   1.00
O2620  O     0.66076   0.26076   0.29300   0.00000  Uiso   1.00
Cr2621 Cr    0.86667   0.33333   0.20135   0.00000  Uiso   1.00
Cr2622 Cr    0.93333   0.26667   0.22213   0.00000  Uiso   1.00
Cr2623 Cr    0.80000   0.20000   0.21844   0.00000  Uiso   1.00
Cr2624 Cr    0.86667   0.33333   0.23921   0.00000  Uiso   1.00
Cr2625 Cr    0.80000   0.20000   0.24290   0.00000  Uiso   1.00
Cr2626 Cr    0.86667   0.33333   0.26368   0.00000  Uiso   1.00
Cr2627 Cr    0.93333   0.26667   0.25999   0.00000  Uiso   1.00
Cr2628 Cr    0.80000   0.20000   0.28076   0.00000  Uiso   1.00
Cr2629 Cr    0.93333   0.26667   0.28446   0.00000  Uiso   1.00
Cr2630 Cr    0.80000   0.20000   0.30523   0.00000  Uiso   1.00
Cr2631 Cr    0.86667   0.33333   0.30154   0.00000  Uiso   1.00
Cr2632 Cr    0.93333   0.26667   0.32231   0.00000  Uiso   1.00
O2633  O     0.86076   0.20000   0.23067   0.00000  Uiso   1.00
O2634  O     0.80000   0.26076   0.23067   0.00000  Uiso   1.00
O2635  O     0.93924   0.33924   0.23067   0.00000  Uiso   1.00
O2636  O     0.87257   0.26667   0.20989   0.00000  Uiso   1.00
O2637  O     0.93333   0.20591   0.20989   0.00000  Uiso   1.00
O2638  O     0.99409   0.32743   0.20989   0.00000  Uiso   1.00
O2639  O     0.99409   0.26667   0.27222   0.00000  Uiso   1.00
O2640  O     0.93333   0.32743   0.27222   0.00000  Uiso   1.00
O2641  O     0.87257   0.20591   0.27222   0.00000  Uiso   1.00
O2642  O     0.80591   0.33333   0.25145   0.00000  Uiso   1.00
O2643  O     0.86667   0.27257   0.25145   0.00000  Uiso   1.00
O2644  O     0.92743   0.39409   0.25145   0.00000  Uiso   1.00
O2645  O     0.92743   0.33333   0.31377   0.00000  Uiso   1.00
O2646  O     0.86667   0.39409   0.31377   0.00000  Uiso   1.00
O2647  O     0.80591   0.27257   0.31377   0.00000  Uiso   1.00
O2648  O     0.93924   0.20000   0.29300   0.00000  Uiso   1.00
O2649  O     0.80000   0.33924   0.29300   0.00000  Uiso   1.00
O2650  O     0.86076   0.26076   0.29300   0.00000  Uiso   1.00
Cr2651 Cr    0.06667   0.53333   0.20135   0.00000  Uiso   1.00
Cr2652 Cr    0.13333   0.46667   0.22213   0.00000  Uiso   1.00
Cr2653 Cr    0.00000   0.40000   0.21844   0.00000  Uiso   1.00
Cr2654 Cr    0.06667   0.53333   0.23921   0.00000  Uiso   1.00
Cr2655 Cr    0.00000   0.40000   0.24290   0.00000  Uiso   1.00
Cr2656 Cr    0.06667   0.53333   0.26368   0.00000  Uiso   1.00
Cr2657 Cr    0.13333   0.46667   0.25999   0.00000  Uiso   1.00
Cr2658 Cr    0.00000   0.40000   0.28076   0.00000  Uiso   1.00
Cr2659 Cr    0.13333   0.46667   0.28446   0.00000  Uiso   1.00
Cr2660 Cr    0.00000   0.40000   0.30523   0.00000  Uiso   1.00
Cr2661 Cr    0.06667   0.53333   0.30154   0.00000  Uiso   1.00
Cr2662 Cr    0.13333   0.46667   0.32231   0.00000  Uiso   1.00
O2663  O     0.06076   0.40000   0.23067   0.00000  Uiso   1.00
O2664  O     0.00000   0.46076   0.23067   0.00000  Uiso   1.00
O2665  O     0.13924   0.53924   0.23067   0.00000  Uiso   1.00
O2666  O     0.07257   0.46667   0.20989   0.00000  Uiso   1.00
O2667  O     0.13333   0.40591   0.20989   0.00000  Uiso   1.00
O2668  O     0.19409   0.52743   0.20989   0.00000  Uiso   1.00
O2669  O     0.19409   0.46667   0.27222   0.00000  Uiso   1.00
O2670  O     0.13333   0.52743   0.27222   0.00000  Uiso   1.00
O2671  O     0.07257   0.40591   0.27222   0.00000  Uiso   1.00
O2672  O     0.00591   0.53333   0.25145   0.00000  Uiso   1.00
O2673  O     0.06667   0.47257   0.25145   0.00000  Uiso   1.00
O2674  O     0.12743   0.59409   0.25145   0.00000  Uiso   1.00
O2675  O     0.12743   0.53333   0.31377   0.00000  Uiso   1.00
O2676  O     0.06667   0.59409   0.31377   0.00000  Uiso   1.00
O2677  O     0.00591   0.47257   0.31377   0.00000  Uiso   1.00
O2678  O     0.13924   0.40000   0.29300   0.00000  Uiso   1.00
O2679  O     0.00000   0.53924   0.29300   0.00000  Uiso   1.00
O2680  O     0.06076   0.46076   0.29300   0.00000  Uiso   1.00
Cr2681 Cr    0.26667   0.53333   0.20135   0.00000  Uiso   1.00
Cr2682 Cr    0.33333   0.46667   0.22213   0.00000  Uiso   1.00
Cr2683 Cr    0.20000   0.40000   0.21844   0.00000  Uiso   1.00
Cr2684 Cr    0.26667   0.53333   0.23921   0.00000  Uiso   1.00
Cr2685 Cr    0.20000   0.40000   0.24290   0.00000  Uiso   1.00
Cr2686 Cr    0.26667   0.53333   0.26368   0.00000  Uiso   1.00
Cr2687 Cr    0.33333   0.46667   0.25999   0.00000  Uiso   1.00
Cr2688 Cr    0.20000   0.40000   0.28076   0.00000  Uiso   1.00
Cr2689 Cr    0.33333   0.46667   0.28446   0.00000  Uiso   1.00
Cr2690 Cr    0.20000   0.40000   0.30523   0.00000  Uiso   1.00
Cr2691 Cr    0.26667   0.53333   0.30154   0.00000  Uiso   1.00
Cr2692 Cr    0.33333   0.46667   0.32231   0.00000  Uiso   1.00
O2693  O     0.26076   0.40000   0.23067   0.00000  Uiso   1.00
O2694  O     0.20000   0.46076   0.23067   0.00000  Uiso   1.00
O2695  O     0.33924   0.53924   0.23067   0.00000  Uiso   1.00
O2696  O     0.27257   0.46667   0.20989   0.00000  Uiso   1.00
O2697  O     0.33333   0.40591   0.20989   0.00000  Uiso   1.00
O2698  O     0.39409   0.52743   0.20989   0.00000  Uiso   1.00
O2699  O     0.39409   0.46667   0.27222   0.00000  Uiso   1.00
O2700  O     0.33333   0.52743   0.27222   0.00000  Uiso   1.00
O2701  O     0.27257   0.40591   0.27222   0.00000  Uiso   1.00
O2702  O     0.20591   0.53333   0.25145   0.00000  Uiso   1.00
O2703  O     0.26667   0.47257   0.25145   0.00000  Uiso   1.00
O2704  O     0.32743   0.59409   0.25145   0.00000  Uiso   1.00
O2705  O     0.32743   0.53333   0.31377   0.00000  Uiso   1.00
O2706  O     0.26667   0.59409   0.31377   0.00000  Uiso   1.00
O2707  O     0.20591   0.47257   0.31377   0.00000  Uiso   1.00
O2708  O     0.33924   0.40000   0.29300   0.00000  Uiso   1.00
O2709  O     0.20000   0.53924   0.29300   0.00000  Uiso   1.00
O2710  O     0.26076   0.46076   0.29300   0.00000  Uiso   1.00
Cr2711 Cr    0.46667   0.53333   0.20135   0.00000  Uiso   1.00
Cr2712 Cr    0.53333   0.46667   0.22213   0.00000  Uiso   1.00
Cr2713 Cr    0.40000   0.40000   0.21844   0.00000  Uiso   1.00
Cr2714 Cr    0.46667   0.53333   0.23921   0.00000  Uiso   1.00
Cr2715 Cr    0.40000   0.40000   0.24290   0.00000  Uiso   1.00
Cr2716 Cr    0.46667   0.53333   0.26368   0.00000  Uiso   1.00
Cr2717 Cr    0.53333   0.46667   0.25999   0.00000  Uiso   1.00
Cr2718 Cr    0.40000   0.40000   0.28076   0.00000  Uiso   1.00
Cr2719 Cr    0.53333   0.46667   0.28446   0.00000  Uiso   1.00
Cr2720 Cr    0.40000   0.40000   0.30523   0.00000  Uiso   1.00
Cr2721 Cr    0.46667   0.53333   0.30154   0.00000  Uiso   1.00
Cr2722 Cr    0.53333   0.46667   0.32231   0.00000  Uiso   1.00
O2723  O     0.46076   0.40000   0.23067   0.00000  Uiso   1.00
O2724  O     0.40000   0.46076   0.23067   0.00000  Uiso   1.00
O2725  O     0.53924   0.53924   0.23067   0.00000  Uiso   1.00
O2726  O     0.47257   0.46667   0.20989   0.00000  Uiso   1.00
O2727  O     0.53333   0.40591   0.20989   0.00000  Uiso   1.00
O2728  O     0.59409   0.52743   0.20989   0.00000  Uiso   1.00
O2729  O     0.59409   0.46667   0.27222   0.00000  Uiso   1.00
O2730  O     0.53333   0.52743   0.27222   0.00000  Uiso   1.00
O2731  O     0.47257   0.40591   0.27222   0.00000  Uiso   1.00
O2732  O     0.40591   0.53333   0.25145   0.00000  Uiso   1.00
O2733  O     0.46667   0.47257   0.25145   0.00000  Uiso   1.00
O2734  O     0.52743   0.59409   0.25145   0.00000  Uiso   1.00
O2735  O     0.52743   0.53333   0.31377   0.00000  Uiso   1.00
O2736  O     0.46667   0.59409   0.31377   0.00000  Uiso   1.00
O2737  O     0.40591   0.47257   0.31377   0.00000  Uiso   1.00
O2738  O     0.53924   0.40000   0.29300   0.00000  Uiso   1.00
O2739  O     0.40000   0.53924   0.29300   0.00000  Uiso   1.00
O2740  O     0.46076   0.46076   0.29300   0.00000  Uiso   1.00
Cr2741 Cr    0.66667   0.53333   0.20135   0.00000  Uiso   1.00
Cr2742 Cr    0.73333   0.46667   0.22213   0.00000  Uiso   1.00
Cr2743 Cr    0.60000   0.40000   0.21844   0.00000  Uiso   1.00
Cr2744 Cr    0.66667   0.53333   0.23921   0.00000  Uiso   1.00
Cr2745 Cr    0.60000   0.40000   0.24290   0.00000  Uiso   1.00
Cr2746 Cr    0.66667   0.53333   0.26368   0.00000  Uiso   1.00
Cr2747 Cr    0.73333   0.46667   0.25999   0.00000  Uiso   1.00
Cr2748 Cr    0.60000   0.40000   0.28076   0.00000  Uiso   1.00
Cr2749 Cr    0.73333   0.46667   0.28446   0.00000  Uiso   1.00
Cr2750 Cr    0.60000   0.40000   0.30523   0.00000  Uiso   1.00
Cr2751 Cr    0.66667   0.53333   0.30154   0.00000  Uiso   1.00
Cr2752 Cr    0.73333   0.46667   0.32231   0.00000  Uiso   1.00
O2753  O     0.66076   0.40000   0.23067   0.00000  Uiso   1.00
O2754  O     0.60000   0.46076   0.23067   0.00000  Uiso   1.00
O2755  O     0.73924   0.53924   0.23067   0.00000  Uiso   1.00
O2756  O     0.67257   0.46667   0.20989   0.00000  Uiso   1.00
O2757  O     0.73333   0.40591   0.20989   0.00000  Uiso   1.00
O2758  O     0.79409   0.52743   0.20989   0.00000  Uiso   1.00
O2759  O     0.79409   0.46667   0.27222   0.00000  Uiso   1.00
O2760  O     0.73333   0.52743   0.27222   0.00000  Uiso   1.00
O2761  O     0.67257   0.40591   0.27222   0.00000  Uiso   1.00
O2762  O     0.60591   0.53333   0.25145   0.00000  Uiso   1.00
O2763  O     0.66667   0.47257   0.25145   0.00000  Uiso   1.00
O2764  O     0.72743   0.59409   0.25145   0.00000  Uiso   1.00
O2765  O     0.72743   0.53333   0.31377   0.00000  Uiso   1.00
O2766  O     0.66667   0.59409   0.31377   0.00000  Uiso   1.00
O2767  O     0.60591   0.47257   0.31377   0.00000  Uiso   1.00
O2768  O     0.73924   0.40000   0.29300   0.00000  Uiso   1.00
O2769  O     0.60000   0.53924   0.29300   0.00000  Uiso   1.00
O2770  O     0.66076   0.46076   0.29300   0.00000  Uiso   1.00
Cr2771 Cr    0.86667   0.53333   0.20135   0.00000  Uiso   1.00
Cr2772 Cr    0.93333   0.46667   0.22213   0.00000  Uiso   1.00
Cr2773 Cr    0.80000   0.40000   0.21844   0.00000  Uiso   1.00
Cr2774 Cr    0.86667   0.53333   0.23921   0.00000  Uiso   1.00
Cr2775 Cr    0.80000   0.40000   0.24290   0.00000  Uiso   1.00
Cr2776 Cr    0.86667   0.53333   0.26368   0.00000  Uiso   1.00
Cr2777 Cr    0.93333   0.46667   0.25999   0.00000  Uiso   1.00
Cr2778 Cr    0.80000   0.40000   0.28076   0.00000  Uiso   1.00
Cr2779 Cr    0.93333   0.46667   0.28446   0.00000  Uiso   1.00
Cr2780 Cr    0.80000   0.40000   0.30523   0.00000  Uiso   1.00
Cr2781 Cr    0.86667   0.53333   0.30154   0.00000  Uiso   1.00
Cr2782 Cr    0.93333   0.46667   0.32231   0.00000  Uiso   1.00
O2783  O     0.86076   0.40000   0.23067   0.00000  Uiso   1.00
O2784  O     0.80000   0.46076   0.23067   0.00000  Uiso   1.00
O2785  O     0.93924   0.53924   0.23067   0.00000  Uiso   1.00
O2786  O     0.87257   0.46667   0.20989   0.00000  Uiso   1.00
O2787  O     0.93333   0.40591   0.20989   0.00000  Uiso   1.00
O2788  O     0.99409   0.52743   0.20989   0.00000  Uiso   1.00
O2789  O     0.99409   0.46667   0.27222   0.00000  Uiso   1.00
O2790  O     0.93333   0.52743   0.27222   0.00000  Uiso   1.00
O2791  O     0.87257   0.40591   0.27222   0.00000  Uiso   1.00
O2792  O     0.80591   0.53333   0.25145   0.00000  Uiso   1.00
O2793  O     0.86667   0.47257   0.25145   0.00000  Uiso   1.00
O2794  O     0.92743   0.59409   0.25145   0.00000  Uiso   1.00
O2795  O     0.92743   0.53333   0.31377   0.00000  Uiso   1.00
O2796  O     0.86667   0.59409   0.31377   0.00000  Uiso   1.00
O2797  O     0.80591   0.47257   0.31377   0.00000  Uiso   1.00
O2798  O     0.93924   0.40000   0.29300   0.00000  Uiso   1.00
O2799  O     0.80000   0.53924   0.29300   0.00000  Uiso   1.00
O2800  O     0.86076   0.46076   0.29300   0.00000  Uiso   1.00
Cr2801 Cr    0.06667   0.73333   0.20135   0.00000  Uiso   1.00
Cr2802 Cr    0.13333   0.66667   0.22213   0.00000  Uiso   1.00
Cr2803 Cr    0.00000   0.60000   0.21844   0.00000  Uiso   1.00
Cr2804 Cr    0.06667   0.73333   0.23921   0.00000  Uiso   1.00
Cr2805 Cr    0.00000   0.60000   0.24290   0.00000  Uiso   1.00
Cr2806 Cr    0.06667   0.73333   0.26368   0.00000  Uiso   1.00
Cr2807 Cr    0.13333   0.66667   0.25999   0.00000  Uiso   1.00
Cr2808 Cr    0.00000   0.60000   0.28076   0.00000  Uiso   1.00
Cr2809 Cr    0.13333   0.66667   0.28446   0.00000  Uiso   1.00
Cr2810 Cr    0.00000   0.60000   0.30523   0.00000  Uiso   1.00
Cr2811 Cr    0.06667   0.73333   0.30154   0.00000  Uiso   1.00
Cr2812 Cr    0.13333   0.66667   0.32231   0.00000  Uiso   1.00
O2813  O     0.06076   0.60000   0.23067   0.00000  Uiso   1.00
O2814  O     0.00000   0.66076   0.23067   0.00000  Uiso   1.00
O2815  O     0.13924   0.73924   0.23067   0.00000  Uiso   1.00
O2816  O     0.07257   0.66667   0.20989   0.00000  Uiso   1.00
O2817  O     0.13333   0.60591   0.20989   0.00000  Uiso   1.00
O2818  O     0.19409   0.72743   0.20989   0.00000  Uiso   1.00
O2819  O     0.19409   0.66667   0.27222   0.00000  Uiso   1.00
O2820  O     0.13333   0.72743   0.27222   0.00000  Uiso   1.00
O2821  O     0.07257   0.60591   0.27222   0.00000  Uiso   1.00
O2822  O     0.00591   0.73333   0.25145   0.00000  Uiso   1.00
O2823  O     0.06667   0.67257   0.25145   0.00000  Uiso   1.00
O2824  O     0.12743   0.79409   0.25145   0.00000  Uiso   1.00
O2825  O     0.12743   0.73333   0.31377   0.00000  Uiso   1.00
O2826  O     0.06667   0.79409   0.31377   0.00000  Uiso   1.00
O2827  O     0.00591   0.67257   0.31377   0.00000  Uiso   1.00
O2828  O     0.13924   0.60000   0.29300   0.00000  Uiso   1.00
O2829  O     0.00000   0.73924   0.29300   0.00000  Uiso   1.00
O2830  O     0.06076   0.66076   0.29300   0.00000  Uiso   1.00
Cr2831 Cr    0.26667   0.73333   0.20135   0.00000  Uiso   1.00
Cr2832 Cr    0.33333   0.66667   0.22213   0.00000  Uiso   1.00
Cr2833 Cr    0.20000   0.60000   0.21844   0.00000  Uiso   1.00
Cr2834 Cr    0.26667   0.73333   0.23921   0.00000  Uiso   1.00
Cr2835 Cr    0.20000   0.60000   0.24290   0.00000  Uiso   1.00
Cr2836 Cr    0.26667   0.73333   0.26368   0.00000  Uiso   1.00
Cr2837 Cr    0.33333   0.66667   0.25999   0.00000  Uiso   1.00
Cr2838 Cr    0.20000   0.60000   0.28076   0.00000  Uiso   1.00
Cr2839 Cr    0.33333   0.66667   0.28446   0.00000  Uiso   1.00
Cr2840 Cr    0.20000   0.60000   0.30523   0.00000  Uiso   1.00
Cr2841 Cr    0.26667   0.73333   0.30154   0.00000  Uiso   1.00
Cr2842 Cr    0.33333   0.66667   0.32231   0.00000  Uiso   1.00
O2843  O     0.26076   0.60000   0.23067   0.00000  Uiso   1.00
O2844  O     0.20000   0.66076   0.23067   0.00000  Uiso   1.00
O2845  O     0.33924   0.73924   0.23067   0.00000  Uiso   1.00
O2846  O     0.27257   0.66667   0.20989   0.00000  Uiso   1.00
O2847  O     0.33333   0.60591   0.20989   0.00000  Uiso   1.00
O2848  O     0.39409   0.72743   0.20989   0.00000  Uiso   1.00
O2849  O     0.39409   0.66667   0.27222   0.00000  Uiso   1.00
O2850  O     0.33333   0.72743   0.27222   0.00000  Uiso   1.00
O2851  O     0.27257   0.60591   0.27222   0.00000  Uiso   1.00
O2852  O     0.20591   0.73333   0.25145   0.00000  Uiso   1.00
O2853  O     0.26667   0.67257   0.25145   0.00000  Uiso   1.00
O2854  O     0.32743   0.79409   0.25145   0.00000  Uiso   1.00
O2855  O     0.32743   0.73333   0.31377   0.00000  Uiso   1.00
O2856  O     0.26667   0.79409   0.31377   0.00000  Uiso   1.00
O2857  O     0.20591   0.67257   0.31377   0.00000  Uiso   1.00
O2858  O     0.33924   0.60000   0.29300   0.00000  Uiso   1.00
O2859  O     0.20000   0.73924   0.29300   0.00000  Uiso   1.00
O2860  O     0.26076   0.66076   0.29300   0.00000  Uiso   1.00
Cr2861 Cr    0.46667   0.73333   0.20135   0.00000  Uiso   1.00
Cr2862 Cr    0.53333   0.66667   0.22213   0.00000  Uiso   1.00
Cr2863 Cr    0.40000   0.60000   0.21844   0.00000  Uiso   1.00
Cr2864 Cr    0.46667   0.73333   0.23921   0.00000  Uiso   1.00
Cr2865 Cr    0.40000   0.60000   0.24290   0.00000  Uiso   1.00
Cr2866 Cr    0.46667   0.73333   0.26368   0.00000  Uiso   1.00
Cr2867 Cr    0.53333   0.66667   0.25999   0.00000  Uiso   1.00
Cr2868 Cr    0.40000   0.60000   0.28076   0.00000  Uiso   1.00
Cr2869 Cr    0.53333   0.66667   0.28446   0.00000  Uiso   1.00
Cr2870 Cr    0.40000   0.60000   0.30523   0.00000  Uiso   1.00
Cr2871 Cr    0.46667   0.73333   0.30154   0.00000  Uiso   1.00
Cr2872 Cr    0.53333   0.66667   0.32231   0.00000  Uiso   1.00
O2873  O     0.46076   0.60000   0.23067   0.00000  Uiso   1.00
O2874  O     0.40000   0.66076   0.23067   0.00000  Uiso   1.00
O2875  O     0.53924   0.73924   0.23067   0.00000  Uiso   1.00
O2876  O     0.47257   0.66667   0.20989   0.00000  Uiso   1.00
O2877  O     0.53333   0.60591   0.20989   0.00000  Uiso   1.00
O2878  O     0.59409   0.72743   0.20989   0.00000  Uiso   1.00
O2879  O     0.59409   0.66667   0.27222   0.00000  Uiso   1.00
O2880  O     0.53333   0.72743   0.27222   0.00000  Uiso   1.00
O2881  O     0.47257   0.60591   0.27222   0.00000  Uiso   1.00
O2882  O     0.40591   0.73333   0.25145   0.00000  Uiso   1.00
O2883  O     0.46667   0.67257   0.25145   0.00000  Uiso   1.00
O2884  O     0.52743   0.79409   0.25145   0.00000  Uiso   1.00
O2885  O     0.52743   0.73333   0.31377   0.00000  Uiso   1.00
O2886  O     0.46667   0.79409   0.31377   0.00000  Uiso   1.00
O2887  O     0.40591   0.67257   0.31377   0.00000  Uiso   1.00
O2888  O     0.53924   0.60000   0.29300   0.00000  Uiso   1.00
O2889  O     0.40000   0.73924   0.29300   0.00000  Uiso   1.00
O2890  O     0.46076   0.66076   0.29300   0.00000  Uiso   1.00
Cr2891 Cr    0.66667   0.73333   0.20135   0.00000  Uiso   1.00
Cr2892 Cr    0.73333   0.66667   0.22213   0.00000  Uiso   1.00
Cr2893 Cr    0.60000   0.60000   0.21844   0.00000  Uiso   1.00
Cr2894 Cr    0.66667   0.73333   0.23921   0.00000  Uiso   1.00
Cr2895 Cr    0.60000   0.60000   0.24290   0.00000  Uiso   1.00
Cr2896 Cr    0.66667   0.73333   0.26368   0.00000  Uiso   1.00
Cr2897 Cr    0.73333   0.66667   0.25999   0.00000  Uiso   1.00
Cr2898 Cr    0.60000   0.60000   0.28076   0.00000  Uiso   1.00
Cr2899 Cr    0.73333   0.66667   0.28446   0.00000  Uiso   1.00
Cr2900 Cr    0.60000   0.60000   0.30523   0.00000  Uiso   1.00
Cr2901 Cr    0.66667   0.73333   0.30154   0.00000  Uiso   1.00
Cr2902 Cr    0.73333   0.66667   0.32231   0.00000  Uiso   1.00
O2903  O     0.66076   0.60000   0.23067   0.00000  Uiso   1.00
O2904  O     0.60000   0.66076   0.23067   0.00000  Uiso   1.00
O2905  O     0.73924   0.73924   0.23067   0.00000  Uiso   1.00
O2906  O     0.67257   0.66667   0.20989   0.00000  Uiso   1.00
O2907  O     0.73333   0.60591   0.20989   0.00000  Uiso   1.00
O2908  O     0.79409   0.72743   0.20989   0.00000  Uiso   1.00
O2909  O     0.79409   0.66667   0.27222   0.00000  Uiso   1.00
O2910  O     0.73333   0.72743   0.27222   0.00000  Uiso   1.00
O2911  O     0.67257   0.60591   0.27222   0.00000  Uiso   1.00
O2912  O     0.60591   0.73333   0.25145   0.00000  Uiso   1.00
O2913  O     0.66667   0.67257   0.25145   0.00000  Uiso   1.00
O2914  O     0.72743   0.79409   0.25145   0.00000  Uiso   1.00
O2915  O     0.72743   0.73333   0.31377   0.00000  Uiso   1.00
O2916  O     0.66667   0.79409   0.31377   0.00000  Uiso   1.00
O2917  O     0.60591   0.67257   0.31377   0.00000  Uiso   1.00
O2918  O     0.73924   0.60000   0.29300   0.00000  Uiso   1.00
O2919  O     0.60000   0.73924   0.29300   0.00000  Uiso   1.00
O2920  O     0.66076   0.66076   0.29300   0.00000  Uiso   1.00
Cr2921 Cr    0.86667   0.73333   0.20135   0.00000  Uiso   1.00
Cr2922 Cr    0.93333   0.66667   0.22213   0.00000  Uiso   1.00
Cr2923 Cr    0.80000   0.60000   0.21844   0.00000  Uiso   1.00
Cr2924 Cr    0.86667   0.73333   0.23921   0.00000  Uiso   1.00
Cr2925 Cr    0.80000   0.60000   0.24290   0.00000  Uiso   1.00
Cr2926 Cr    0.86667   0.73333   0.26368   0.00000  Uiso   1.00
Cr2927 Cr    0.93333   0.66667   0.25999   0.00000  Uiso   1.00
Cr2928 Cr    0.80000   0.60000   0.28076   0.00000  Uiso   1.00
Cr2929 Cr    0.93333   0.66667   0.28446   0.00000  Uiso   1.00
Cr2930 Cr    0.80000   0.60000   0.30523   0.00000  Uiso   1.00
Cr2931 Cr    0.86667   0.73333   0.30154   0.00000  Uiso   1.00
Cr2932 Cr    0.93333   0.66667   0.32231   0.00000  Uiso   1.00
O2933  O     0.86076   0.60000   0.23067   0.00000  Uiso   1.00
O2934  O     0.80000   0.66076   0.23067   0.00000  Uiso   1.00
O2935  O     0.93924   0.73924   0.23067   0.00000  Uiso   1.00
O2936  O     0.87257   0.66667   0.20989   0.00000  Uiso   1.00
O2937  O     0.93333   0.60591   0.20989   0.00000  Uiso   1.00
O2938  O     0.99409   0.72743   0.20989   0.00000  Uiso   1.00
O2939  O     0.99409   0.66667   0.27222   0.00000  Uiso   1.00
O2940  O     0.93333   0.72743   0.27222   0.00000  Uiso   1.00
O2941  O     0.87257   0.60591   0.27222   0.00000  Uiso   1.00
O2942  O     0.80591   0.73333   0.25145   0.00000  Uiso   1.00
O2943  O     0.86667   0.67257   0.25145   0.00000  Uiso   1.00
O2944  O     0.92743   0.79409   0.25145   0.00000  Uiso   1.00
O2945  O     0.92743   0.73333   0.31377   0.00000  Uiso   1.00
O2946  O     0.86667   0.79409   0.31377   0.00000  Uiso   1.00
O2947  O     0.80591   0.67257   0.31377   0.00000  Uiso   1.00
O2948  O     0.93924   0.60000   0.29300   0.00000  Uiso   1.00
O2949  O     0.80000   0.73924   0.29300   0.00000  Uiso   1.00
O2950  O     0.86076   0.66076   0.29300   0.00000  Uiso   1.00
Cr2951 Cr    0.06667   0.93333   0.20135   0.00000  Uiso   1.00
Cr2952 Cr    0.13333   0.86667   0.22213   0.00000  Uiso   1.00
Cr2953 Cr    0.00000   0.80000   0.21844   0.00000  Uiso   1.00
Cr2954 Cr    0.06667   0.93333   0.23921   0.00000  Uiso   1.00
Cr2955 Cr    0.00000   0.80000   0.24290   0.00000  Uiso   1.00
Cr2956 Cr    0.06667   0.93333   0.26368   0.00000  Uiso   1.00
Cr2957 Cr    0.13333   0.86667   0.25999   0.00000  Uiso   1.00
Cr2958 Cr    0.00000   0.80000   0.28076   0.00000  Uiso   1.00
Cr2959 Cr    0.13333   0.86667   0.28446   0.00000  Uiso   1.00
Cr2960 Cr    0.00000   0.80000   0.30523   0.00000  Uiso   1.00
Cr2961 Cr    0.06667   0.93333   0.30154   0.00000  Uiso   1.00
Cr2962 Cr    0.13333   0.86667   0.32231   0.00000  Uiso   1.00
O2963  O     0.06076   0.80000   0.23067   0.00000  Uiso   1.00
O2964  O     0.00000   0.86076   0.23067   0.00000  Uiso   1.00
O2965  O     0.13924   0.93924   0.23067   0.00000  Uiso   1.00
O2966  O     0.07257   0.86667   0.20989   0.00000  Uiso   1.00
O2967  O     0.13333   0.80591   0.20989   0.00000  Uiso   1.00
O2968  O     0.19409   0.92743   0.20989   0.00000  Uiso   1.00
O2969  O     0.19409   0.86667   0.27222   0.00000  Uiso   1.00
O2970  O     0.13333   0.92743   0.27222   0.00000  Uiso   1.00
O2971  O     0.07257   0.80591   0.27222   0.00000  Uiso   1.00
O2972  O     0.00591   0.93333   0.25145   0.00000  Uiso   1.00
O2973  O     0.06667   0.87257   0.25145   0.00000  Uiso   1.00
O2974  O     0.12743   0.99409   0.25145   0.00000  Uiso   1.00
O2975  O     0.12743   0.93333   0.31377   0.00000  Uiso   1.00
O2976  O     0.06667   0.99409   0.31377   0.00000  Uiso   1.00
O2977  O     0.00591   0.87257   0.31377   0.00000  Uiso   1.00
O2978  O     0.13924   0.80000   0.29300   0.00000  Uiso   1.00
O2979  O     0.00000   0.93924   0.29300   0.00000  Uiso   1.00
O2980  O     0.06076   0.86076   0.29300   0.00000  Uiso   1.00
Cr2981 Cr    0.26667   0.93333   0.20135   0.00000  Uiso   1.00
Cr2982 Cr    0.33333   0.86667   0.22213   0.00000  Uiso   1.00
Cr2983 Cr    0.20000   0.80000   0.21844   0.00000  Uiso   1.00
Cr2984 Cr    0.26667   0.93333   0.23921   0.00000  Uiso   1.00
Cr2985 Cr    0.20000   0.80000   0.24290   0.00000  Uiso   1.00
Cr2986 Cr    0.26667   0.93333   0.26368   0.00000  Uiso   1.00
Cr2987 Cr    0.33333   0.86667   0.25999   0.00000  Uiso   1.00
Cr2988 Cr    0.20000   0.80000   0.28076   0.00000  Uiso   1.00
Cr2989 Cr    0.33333   0.86667   0.28446   0.00000  Uiso   1.00
Cr2990 Cr    0.20000   0.80000   0.30523   0.00000  Uiso   1.00
Cr2991 Cr    0.26667   0.93333   0.30154   0.00000  Uiso   1.00
Cr2992 Cr    0.33333   0.86667   0.32231   0.00000  Uiso   1.00
O2993  O     0.26076   0.80000   0.23067   0.00000  Uiso   1.00
O2994  O     0.20000   0.86076   0.23067   0.00000  Uiso   1.00
O2995  O     0.33924   0.93924   0.23067   0.00000  Uiso   1.00
O2996  O     0.27257   0.86667   0.20989   0.00000  Uiso   1.00
O2997  O     0.33333   0.80591   0.20989   0.00000  Uiso   1.00
O2998  O     0.39409   0.92743   0.20989   0.00000  Uiso   1.00
O2999  O     0.39409   0.86667   0.27222   0.00000  Uiso   1.00
O3000  O     0.33333   0.92743   0.27222   0.00000  Uiso   1.00
O3001  O     0.27257   0.80591   0.27222   0.00000  Uiso   1.00
O3002  O     0.20591   0.93333   0.25145   0.00000  Uiso   1.00
O3003  O     0.26667   0.87257   0.25145   0.00000  Uiso   1.00
O3004  O     0.32743   0.99409   0.25145   0.00000  Uiso   1.00
O3005  O     0.32743   0.93333   0.31377   0.00000  Uiso   1.00
O3006  O     0.26667   0.99409   0.31377   0.00000  Uiso   1.00
O3007  O     0.20591   0.87257   0.31377   0.00000  Uiso   1.00
O3008  O     0.33924   0.80000   0.29300   0.00000  Uiso   1.00
O3009  O     0.20000   0.93924   0.29300   0.00000  Uiso   1.00
O3010  O     0.26076   0.86076   0.29300   0.00000  Uiso   1.00
Cr3011 Cr    0.46667   0.93333   0.20135   0.00000  Uiso   1.00
Cr3012 Cr    0.53333   0.86667   0.22213   0.00000  Uiso   1.00
Cr3013 Cr    0.40000   0.80000   0.21844   0.00000  Uiso   1.00
Cr3014 Cr    0.46667   0.93333   0.23921   0.00000  Uiso   1.00
Cr3015 Cr    0.40000   0.80000   0.24290   0.00000  Uiso   1.00
Cr3016 Cr    0.46667   0.93333   0.26368   0.00000  Uiso   1.00
Cr3017 Cr    0.53333   0.86667   0.25999   0.00000  Uiso   1.00
Cr3018 Cr    0.40000   0.80000   0.28076   0.00000  Uiso   1.00
Cr3019 Cr    0.53333   0.86667   0.28446   0.00000  Uiso   1.00
Cr3020 Cr    0.40000   0.80000   0.30523   0.00000  Uiso   1.00
Cr3021 Cr    0.46667   0.93333   0.30154   0.00000  Uiso   1.00
Cr3022 Cr    0.53333   0.86667   0.32231   0.00000  Uiso   1.00
O3023  O     0.46076   0.80000   0.23067   0.00000  Uiso   1.00
O3024  O     0.40000   0.86076   0.23067   0.00000  Uiso   1.00
O3025  O     0.53924   0.93924   0.23067   0.00000  Uiso   1.00
O3026  O     0.47257   0.86667   0.20989   0.00000  Uiso   1.00
O3027  O     0.53333   0.80591   0.20989   0.00000  Uiso   1.00
O3028  O     0.59409   0.92743   0.20989   0.00000  Uiso   1.00
O3029  O     0.59409   0.86667   0.27222   0.00000  Uiso   1.00
O3030  O     0.53333   0.92743   0.27222   0.00000  Uiso   1.00
O3031  O     0.47257   0.80591   0.27222   0.00000  Uiso   1.00
O3032  O     0.40591   0.93333   0.25145   0.00000  Uiso   1.00
O3033  O     0.46667   0.87257   0.25145   0.00000  Uiso   1.00
O3034  O     0.52743   0.99409   0.25145   0.00000  Uiso   1.00
O3035  O     0.52743   0.93333   0.31377   0.00000  Uiso   1.00
O3036  O     0.46667   0.99409   0.31377   0.00000  Uiso   1.00
O3037  O     0.40591   0.87257   0.31377   0.00000  Uiso   1.00
O3038  O     0.53924   0.80000   0.29300   0.00000  Uiso   1.00
O3039  O     0.40000   0.93924   0.29300   0.00000  Uiso   1.00
O3040  O     0.46076   0.86076   0.29300   0.00000  Uiso   1.00
Cr3041 Cr    0.66667   0.93333   0.20135   0.00000  Uiso   1.00
Cr3042 Cr    0.73333   0.86667   0.22213   0.00000  Uiso   1.00
Cr3043 Cr    0.60000   0.80000   0.21844   0.00000  Uiso   1.00
Cr3044 Cr    0.66667   0.93333   0.23921   0.00000  Uiso   1.00
Cr3045 Cr    0.60000   0.80000   0.24290   0.00000  Uiso   1.00
Cr3046 Cr    0.66667   0.93333   0.26368   0.00000  Uiso   1.00
Cr3047 Cr    0.73333   0.86667   0.25999   0.00000  Uiso   1.00
Cr3048 Cr    0.60000   0.80000   0.28076   0.00000  Uiso   1.00
Cr3049 Cr    0.73333   0.86667   0.28446   0.00000  Uiso   1.00
Cr3050 Cr    0.60000   0.80000   0.30523   0.00000  Uiso   1.00
Cr3051 Cr    0.66667   0.93333   0.30154   0.00000  Uiso   1.00
Cr3052 Cr    0.73333   0.86667   0.32231   0.00000  Uiso   1.00
O3053  O     0.66076   0.80000   0.23067   0.00000  Uiso   1.00
O3054  O     0.60000   0.86076   0.23067   0.00000  Uiso   1.00
O3055  O     0.73924   0.93924   0.23067   0.00000  Uiso   1.00
O3056  O     0.67257   0.86667   0.20989   0.00000  Uiso   1.00
O3057  O     0.73333   0.80591   0.20989   0.00000  Uiso   1.00
O3058  O     0.79409   0.92743   0.20989   0.00000  Uiso   1.00
O3059  O     0.79409   0.86667   0.27222   0.00000  Uiso   1.00
O3060  O     0.73333   0.92743   0.27222   0.00000  Uiso   1.00
O3061  O     0.67257   0.80591   0.27222   0.00000  Uiso   1.00
O3062  O     0.60591   0.93333   0.25145   0.00000  Uiso   1.00
O3063  O     0.66667   0.87257   0.25145   0.00000  Uiso   1.00
O3064  O     0.72743   0.99409   0.25145   0.00000  Uiso   1.00
O3065  O     0.72743   0.93333   0.31377   0.00000  Uiso   1.00
O3066  O     0.66667   0.99409   0.31377   0.00000  Uiso   1.00
O3067  O     0.60591   0.87257   0.31377   0.00000  Uiso   1.00
O3068  O     0.73924   0.80000   0.29300   0.00000  Uiso   1.00
O3069  O     0.60000   0.93924   0.29300   0.00000  Uiso   1.00
O3070  O     0.66076   0.86076   0.29300   0.00000  Uiso   1.00
Cr3071 Cr    0.86667   0.93333   0.20135   0.00000  Uiso   1.00
Cr3072 Cr    0.93333   0.86667   0.22213   0.00000  Uiso   1.00
Cr3073 Cr    0.80000   0.80000   0.21844   0.00000  Uiso   1.00
Cr3074 Cr    0.86667   0.93333   0.23921   0.00000  Uiso   1.00
Cr3075 Cr    0.80000   0.80000   0.24290   0.00000  Uiso   1.00
Cr3076 Cr    0.86667   0.93333   0.26368   0.00000  Uiso   1.00
Cr3077 Cr    0.93333   0.86667   0.25999   0.00000  Uiso   1.00
Cr3078 Cr    0.80000   0.80000   0.28076   0.00000  Uiso   1.00
Cr3079 Cr    0.93333   0.86667   0.28446   0.00000  Uiso   1.00
Cr3080 Cr    0.80000   0.80000   0.30523   0.00000  Uiso   1.00
Cr3081 Cr    0.86667   0.93333   0.30154   0.00000  Uiso   1.00
Cr3082 Cr    0.93333   0.86667   0.32231   0.00000  Uiso   1.00
O3083  O     0.86076   0.80000   0.23067   0.00000  Uiso   1.00
O3084  O     0.80000   0.86076   0.23067   0.00000  Uiso   1.00
O3085  O     0.93924   0.93924   0.23067   0.00000  Uiso   1.00
O3086  O     0.87257   0.86667   0.20989   0.00000  Uiso   1.00
O3087  O     0.93333   0.80591   0.20989   0.00000  Uiso   1.00
O3088  O     0.99409   0.92743   0.20989   0.00000  Uiso   1.00
O3089  O     0.99409   0.86667   0.27222   0.00000  Uiso   1.00
O3090  O     0.93333   0.92743   0.27222   0.00000  Uiso   1.00
O3091  O     0.87257   0.80591   0.27222   0.00000  Uiso   1.00
O3092  O     0.80591   0.93333   0.25145   0.00000  Uiso   1.00
O3093  O     0.86667   0.87257   0.25145   0.00000  Uiso   1.00
O3094  O     0.92743   0.99409   0.25145   0.00000  Uiso   1.00
O3095  O     0.92743   0.93333   0.31377   0.00000  Uiso   1.00
O3096  O     0.86667   0.99409   0.31377   0.00000  Uiso   1.00
O3097  O     0.80591   0.87257   0.31377   0.00000  Uiso   1.00
O3098  O     0.93924   0.80000   0.29300   0.00000  Uiso   1.00
O3099  O     0.80000   0.93924   0.29300   0.00000  Uiso   1.00
O3100  O     0.86076   0.86076   0.29300   0.00000  Uiso   1.00
Cr3101 Cr    0.18750   0.18750   0.53256   0.01267  Uiso   1.00
Cr3102 Cr    0.18750   0.18750   0.57943   0.01267  Uiso   1.00
Cr3103 Cr    0.18750   0.43750   0.53256   0.01267  Uiso   1.00
Cr3104 Cr    0.18750   0.43750   0.57943   0.01267  Uiso   1.00
Cr3105 Cr    0.43750   0.18750   0.53256   0.01267  Uiso   1.00
Cr3106 Cr    0.43750   0.18750   0.57943   0.01267  Uiso   1.00
Cr3107 Cr    0.43750   0.43750   0.53256   0.01267  Uiso   1.00
Cr3108 Cr    0.43750   0.43750   0.57943   0.01267  Uiso   1.00
Cr3109 Cr    0.06250   0.06250   0.53256   0.01267  Uiso   1.00
Cr3110 Cr    0.06250   0.06250   0.57943   0.01267  Uiso   1.00
Cr3111 Cr    0.06250   0.31250   0.53256   0.01267  Uiso   1.00
Cr3112 Cr    0.06250   0.31250   0.57943   0.01267  Uiso   1.00
Cr3113 Cr    0.31250   0.06250   0.53256   0.01267  Uiso   1.00
Cr3114 Cr    0.31250   0.06250   0.57943   0.01267  Uiso   1.00
Cr3115 Cr    0.31250   0.31250   0.53256   0.01267  Uiso   1.00
Cr3116 Cr    0.31250   0.31250   0.57943   0.01267  Uiso   1.00
Cr3117 Cr    0.06250   0.18750   0.55599   0.01267  Uiso   1.00
Cr3118 Cr    0.06250   0.18750   0.60287   0.01267  Uiso   1.00
Cr3119 Cr    0.06250   0.43750   0.55599   0.01267  Uiso   1.00
Cr3120 Cr    0.06250   0.43750   0.60287   0.01267  Uiso   1.00
Cr3121 Cr    0.31250   0.18750   0.55599   0.01267  Uiso   1.00
Cr3122 Cr    0.31250   0.18750   0.60287   0.01267  Uiso   1.00
Cr3123 Cr    0.31250   0.43750   0.55599   0.01267  Uiso   1.00
Cr3124 Cr    0.31250   0.43750   0.60287   0.01267  Uiso   1.00
Cr3125 Cr    0.18750   0.06250   0.55599   0.01267  Uiso   1.00
Cr3126 Cr    0.18750   0.06250   0.60287   0.01267  Uiso   1.00
Cr3127 Cr    0.18750   0.31250   0.55599   0.01267  Uiso   1.00
Cr3128 Cr    0.18750   0.31250   0.60287   0.01267  Uiso   1.00
Cr3129 Cr    0.43750   0.06250   0.55599   0.01267  Uiso   1.00
Cr3130 Cr    0.43750   0.06250   0.60287   0.01267  Uiso   1.00
Cr3131 Cr    0.43750   0.31250   0.55599   0.01267  Uiso   1.00
Cr3132 Cr    0.43750   0.31250   0.60287   0.01267  Uiso   1.00
Fe3133 Fe    0.18750   0.06250   0.53256   0.01267  Uiso   1.00
Fe3134 Fe    0.18750   0.06250   0.57943   0.01267  Uiso   1.00
Fe3135 Fe    0.18750   0.31250   0.53256   0.01267  Uiso   1.00
Fe3136 Fe    0.18750   0.31250   0.57943   0.01267  Uiso   1.00
Fe3137 Fe    0.43750   0.06250   0.53256   0.01267  Uiso   1.00
Fe3138 Fe    0.43750   0.06250   0.57943   0.01267  Uiso   1.00
Fe3139 Fe    0.43750   0.31250   0.53256   0.01267  Uiso   1.00
Fe3140 Fe    0.43750   0.31250   0.57943   0.01267  Uiso   1.00
Fe3141 Fe    0.06250   0.18750   0.53256   0.01267  Uiso   1.00
Fe3142 Fe    0.06250   0.18750   0.57943   0.01267  Uiso   1.00
Fe3143 Fe    0.06250   0.43750   0.53256   0.01267  Uiso   1.00
Fe3144 Fe    0.06250   0.43750   0.57943   0.01267  Uiso   1.00
Fe3145 Fe    0.31250   0.18750   0.53256   0.01267  Uiso   1.00
Fe3146 Fe    0.31250   0.18750   0.57943   0.01267  Uiso   1.00
Fe3147 Fe    0.31250   0.43750   0.53256   0.01267  Uiso   1.00
Fe3148 Fe    0.31250   0.43750   0.57943   0.01267  Uiso   1.00
Fe3149 Fe    0.00000   0.00000   0.98957   0.01267  Uiso   1.00
Fe3150 Fe    0.00000   0.00000   0.56771   0.01267  Uiso   1.00
Fe3151 Fe    0.00000   0.25000   0.98957   0.01267  Uiso   1.00
Fe3152 Fe    0.00000   0.25000   0.56771   0.01267  Uiso   1.00
Fe3153 Fe    0.25000   0.00000   0.98957   0.01267  Uiso   1.00
Fe3154 Fe    0.25000   0.00000   0.56771   0.01267  Uiso   1.00
Fe3155 Fe    0.25000   0.25000   0.98957   0.01267  Uiso   1.00
Fe3156 Fe    0.25000   0.25000   0.56771   0.01267  Uiso   1.00
Fe3157 Fe    0.12500   0.12500   0.98957   0.01267  Uiso   1.00
Fe3158 Fe    0.12500   0.12500   0.56771   0.01267  Uiso   1.00
Fe3159 Fe    0.12500   0.37500   0.98957   0.01267  Uiso   1.00
Fe3160 Fe    0.12500   0.37500   0.56771   0.01267  Uiso   1.00
Fe3161 Fe    0.37500   0.12500   0.98957   0.01267  Uiso   1.00
Fe3162 Fe    0.37500   0.12500   0.56771   0.01267  Uiso   1.00
Fe3163 Fe    0.37500   0.37500   0.98957   0.01267  Uiso   1.00
Fe3164 Fe    0.37500   0.37500   0.56771   0.01267  Uiso   1.00
Fe3165 Fe    0.12500   0.00000   0.54428   0.01267  Uiso   1.00
Fe3166 Fe    0.12500   0.00000   0.59115   0.01267  Uiso   1.00
Fe3167 Fe    0.12500   0.25000   0.54428   0.01267  Uiso   1.00
Fe3168 Fe    0.12500   0.25000   0.59115   0.01267  Uiso   1.00
Fe3169 Fe    0.37500   0.00000   0.54428   0.01267  Uiso   1.00
Fe3170 Fe    0.37500   0.00000   0.59115   0.01267  Uiso   1.00
Fe3171 Fe    0.37500   0.25000   0.54428   0.01267  Uiso   1.00
Fe3172 Fe    0.37500   0.25000   0.59115   0.01267  Uiso   1.00
Fe3173 Fe    0.00000   0.12500   0.54428   0.01267  Uiso   1.00
Fe3174 Fe    0.00000   0.12500   0.59115   0.01267  Uiso   1.00
Fe3175 Fe    0.00000   0.37500   0.54428   0.01267  Uiso   1.00
Fe3176 Fe    0.00000   0.37500   0.59115   0.01267  Uiso   1.00
Fe3177 Fe    0.25000   0.12500   0.54428   0.01267  Uiso   1.00
Fe3178 Fe    0.25000   0.12500   0.59115   0.01267  Uiso   1.00
Fe3179 Fe    0.25000   0.37500   0.54428   0.01267  Uiso   1.00
Fe3180 Fe    0.25000   0.37500   0.59115   0.01267  Uiso   1.00
Fe3181 Fe    0.18750   0.18750   0.55599   0.01267  Uiso   1.00
Fe3182 Fe    0.18750   0.18750   0.60287   0.01267  Uiso   1.00
Fe3183 Fe    0.18750   0.43750   0.55599   0.01267  Uiso   1.00
Fe3184 Fe    0.18750   0.43750   0.60287   0.01267  Uiso   1.00
Fe3185 Fe    0.43750   0.18750   0.55599   0.01267  Uiso   1.00
Fe3186 Fe    0.43750   0.18750   0.60287   0.01267  Uiso   1.00
Fe3187 Fe    0.43750   0.43750   0.55599   0.01267  Uiso   1.00
Fe3188 Fe    0.43750   0.43750   0.60287   0.01267  Uiso   1.00
Fe3189 Fe    0.06250   0.06250   0.55599   0.01267  Uiso   1.00
Fe3190 Fe    0.06250   0.06250   0.60287   0.01267  Uiso   1.00
Fe3191 Fe    0.06250   0.31250   0.55599   0.01267  Uiso   1.00
Fe3192 Fe    0.06250   0.31250   0.60287   0.01267  Uiso   1.00
Fe3193 Fe    0.31250   0.06250   0.55599   0.01267  Uiso   1.00
Fe3194 Fe    0.31250   0.06250   0.60287   0.01267  Uiso   1.00
Fe3195 Fe    0.31250   0.31250   0.55599   0.01267  Uiso   1.00
Fe3196 Fe    0.31250   0.31250   0.60287   0.01267  Uiso   1.00
Fe3197 Fe    0.00000   0.00000   0.54428   0.01267  Uiso   1.00
Fe3198 Fe    0.00000   0.00000   0.59115   0.01267  Uiso   1.00
Fe3199 Fe    0.00000   0.25000   0.54428   0.01267  Uiso   1.00
Fe3200 Fe    0.00000   0.25000   0.59115   0.01267  Uiso   1.00
Fe3201 Fe    0.25000   0.00000   0.54428   0.01267  Uiso   1.00
Fe3202 Fe    0.25000   0.00000   0.59115   0.01267  Uiso   1.00
Fe3203 Fe    0.25000   0.25000   0.54428   0.01267  Uiso   1.00
Fe3204 Fe    0.25000   0.25000   0.59115   0.01267  Uiso   1.00
Fe3205 Fe    0.12500   0.00000   0.98957   0.01267  Uiso   1.00
Fe3206 Fe    0.12500   0.00000   0.56771   0.01267  Uiso   1.00
Fe3207 Fe    0.12500   0.25000   0.98957   0.01267  Uiso   1.00
Fe3208 Fe    0.12500   0.25000   0.56771   0.01267  Uiso   1.00
Fe3209 Fe    0.37500   0.00000   0.98957   0.01267  Uiso   1.00
Fe3210 Fe    0.37500   0.00000   0.56771   0.01267  Uiso   1.00
Fe3211 Fe    0.37500   0.25000   0.98957   0.01267  Uiso   1.00
Fe3212 Fe    0.37500   0.25000   0.56771   0.01267  Uiso   1.00
Fe3213 Fe    0.00000   0.12500   0.98957   0.01267  Uiso   1.00
Fe3214 Fe    0.00000   0.12500   0.56771   0.01267  Uiso   1.00
Fe3215 Fe    0.00000   0.37500   0.98957   0.01267  Uiso   1.00
Fe3216 Fe    0.00000   0.37500   0.56771   0.01267  Uiso   1.00
Fe3217 Fe    0.25000   0.12500   0.98957   0.01267  Uiso   1.00
Fe3218 Fe    0.25000   0.12500   0.56771   0.01267  Uiso   1.00
Fe3219 Fe    0.25000   0.37500   0.98957   0.01267  Uiso   1.00
Fe3220 Fe    0.25000   0.37500   0.56771   0.01267  Uiso   1.00
Fe3221 Fe    0.12500   0.12500   0.54428   0.01267  Uiso   1.00
Fe3222 Fe    0.12500   0.12500   0.59115   0.01267  Uiso   1.00
Fe3223 Fe    0.12500   0.37500   0.54428   0.01267  Uiso   1.00
Fe3224 Fe    0.12500   0.37500   0.59115   0.01267  Uiso   1.00
Fe3225 Fe    0.37500   0.12500   0.54428   0.01267  Uiso   1.00
Fe3226 Fe    0.37500   0.12500   0.59115   0.01267  Uiso   1.00
Fe3227 Fe    0.37500   0.37500   0.54428   0.01267  Uiso   1.00
Fe3228 Fe    0.37500   0.37500   0.59115   0.01267  Uiso   1.00
Cr3229 Cr    0.68750   0.18750   0.53256   0.01267  Uiso   1.00
Cr3230 Cr    0.68750   0.18750   0.57943   0.01267  Uiso   1.00
Cr3231 Cr    0.68750   0.43750   0.53256   0.01267  Uiso   1.00
Cr3232 Cr    0.68750   0.43750   0.57943   0.01267  Uiso   1.00
Cr3233 Cr    0.93750   0.18750   0.53256   0.01267  Uiso   1.00
Cr3234 Cr    0.93750   0.18750   0.57943   0.01267  Uiso   1.00
Cr3235 Cr    0.93750   0.43750   0.53256   0.01267  Uiso   1.00
Cr3236 Cr    0.93750   0.43750   0.57943   0.01267  Uiso   1.00
Cr3237 Cr    0.56250   0.06250   0.53256   0.01267  Uiso   1.00
Cr3238 Cr    0.56250   0.06250   0.57943   0.01267  Uiso   1.00
Cr3239 Cr    0.56250   0.31250   0.53256   0.01267  Uiso   1.00
Cr3240 Cr    0.56250   0.31250   0.57943   0.01267  Uiso   1.00
Cr3241 Cr    0.81250   0.06250   0.53256   0.01267  Uiso   1.00
Cr3242 Cr    0.81250   0.06250   0.57943   0.01267  Uiso   1.00
Cr3243 Cr    0.81250   0.31250   0.53256   0.01267  Uiso   1.00
Cr3244 Cr    0.81250   0.31250   0.57943   0.01267  Uiso   1.00
Cr3245 Cr    0.56250   0.18750   0.55599   0.01267  Uiso   1.00
Cr3246 Cr    0.56250   0.18750   0.60287   0.01267  Uiso   1.00
Cr3247 Cr    0.56250   0.43750   0.55599   0.01267  Uiso   1.00
Cr3248 Cr    0.56250   0.43750   0.60287   0.01267  Uiso   1.00
Cr3249 Cr    0.81250   0.18750   0.55599   0.01267  Uiso   1.00
Cr3250 Cr    0.81250   0.18750   0.60287   0.01267  Uiso   1.00
Cr3251 Cr    0.81250   0.43750   0.55599   0.01267  Uiso   1.00
Cr3252 Cr    0.81250   0.43750   0.60287   0.01267  Uiso   1.00
Cr3253 Cr    0.68750   0.06250   0.55599   0.01267  Uiso   1.00
Cr3254 Cr    0.68750   0.06250   0.60287   0.01267  Uiso   1.00
Cr3255 Cr    0.68750   0.31250   0.55599   0.01267  Uiso   1.00
Cr3256 Cr    0.68750   0.31250   0.60287   0.01267  Uiso   1.00
Cr3257 Cr    0.93750   0.06250   0.55599   0.01267  Uiso   1.00
Cr3258 Cr    0.93750   0.06250   0.60287   0.01267  Uiso   1.00
Cr3259 Cr    0.93750   0.31250   0.55599   0.01267  Uiso   1.00
Cr3260 Cr    0.93750   0.31250   0.60287   0.01267  Uiso   1.00
Fe3261 Fe    0.68750   0.06250   0.53256   0.01267  Uiso   1.00
Fe3262 Fe    0.68750   0.06250   0.57943   0.01267  Uiso   1.00
Fe3263 Fe    0.68750   0.31250   0.53256   0.01267  Uiso   1.00
Fe3264 Fe    0.68750   0.31250   0.57943   0.01267  Uiso   1.00
Fe3265 Fe    0.93750   0.06250   0.53256   0.01267  Uiso   1.00
Fe3266 Fe    0.93750   0.06250   0.57943   0.01267  Uiso   1.00
Fe3267 Fe    0.93750   0.31250   0.53256   0.01267  Uiso   1.00
Fe3268 Fe    0.93750   0.31250   0.57943   0.01267  Uiso   1.00
Fe3269 Fe    0.56250   0.18750   0.53256   0.01267  Uiso   1.00
Fe3270 Fe    0.56250   0.18750   0.57943   0.01267  Uiso   1.00
Fe3271 Fe    0.56250   0.43750   0.53256   0.01267  Uiso   1.00
Fe3272 Fe    0.56250   0.43750   0.57943   0.01267  Uiso   1.00
Fe3273 Fe    0.81250   0.18750   0.53256   0.01267  Uiso   1.00
Fe3274 Fe    0.81250   0.18750   0.57943   0.01267  Uiso   1.00
Fe3275 Fe    0.81250   0.43750   0.53256   0.01267  Uiso   1.00
Fe3276 Fe    0.81250   0.43750   0.57943   0.01267  Uiso   1.00
Fe3277 Fe    0.50000   0.00000   0.98957   0.01267  Uiso   1.00
Fe3278 Fe    0.50000   0.00000   0.56771   0.01267  Uiso   1.00
Fe3279 Fe    0.50000   0.25000   0.98957   0.01267  Uiso   1.00
Fe3280 Fe    0.50000   0.25000   0.56771   0.01267  Uiso   1.00
Fe3281 Fe    0.75000   0.00000   0.98957   0.01267  Uiso   1.00
Fe3282 Fe    0.75000   0.00000   0.56771   0.01267  Uiso   1.00
Fe3283 Fe    0.75000   0.25000   0.98957   0.01267  Uiso   1.00
Fe3284 Fe    0.75000   0.25000   0.56771   0.01267  Uiso   1.00
Fe3285 Fe    0.62500   0.12500   0.98957   0.01267  Uiso   1.00
Fe3286 Fe    0.62500   0.12500   0.56771   0.01267  Uiso   1.00
Fe3287 Fe    0.62500   0.37500   0.98957   0.01267  Uiso   1.00
Fe3288 Fe    0.62500   0.37500   0.56771   0.01267  Uiso   1.00
Fe3289 Fe    0.87500   0.12500   0.98957   0.01267  Uiso   1.00
Fe3290 Fe    0.87500   0.12500   0.56771   0.01267  Uiso   1.00
Fe3291 Fe    0.87500   0.37500   0.98957   0.01267  Uiso   1.00
Fe3292 Fe    0.87500   0.37500   0.56771   0.01267  Uiso   1.00
Fe3293 Fe    0.62500   0.00000   0.54428   0.01267  Uiso   1.00
Fe3294 Fe    0.62500   0.00000   0.59115   0.01267  Uiso   1.00
Fe3295 Fe    0.62500   0.25000   0.54428   0.01267  Uiso   1.00
Fe3296 Fe    0.62500   0.25000   0.59115   0.01267  Uiso   1.00
Fe3297 Fe    0.87500   0.00000   0.54428   0.01267  Uiso   1.00
Fe3298 Fe    0.87500   0.00000   0.59115   0.01267  Uiso   1.00
Fe3299 Fe    0.87500   0.25000   0.54428   0.01267  Uiso   1.00
Fe3300 Fe    0.87500   0.25000   0.59115   0.01267  Uiso   1.00
Fe3301 Fe    0.50000   0.12500   0.54428   0.01267  Uiso   1.00
Fe3302 Fe    0.50000   0.12500   0.59115   0.01267  Uiso   1.00
Fe3303 Fe    0.50000   0.37500   0.54428   0.01267  Uiso   1.00
Fe3304 Fe    0.50000   0.37500   0.59115   0.01267  Uiso   1.00
Fe3305 Fe    0.75000   0.12500   0.54428   0.01267  Uiso   1.00
Fe3306 Fe    0.75000   0.12500   0.59115   0.01267  Uiso   1.00
Fe3307 Fe    0.75000   0.37500   0.54428   0.01267  Uiso   1.00
Fe3308 Fe    0.75000   0.37500   0.59115   0.01267  Uiso   1.00
Fe3309 Fe    0.68750   0.18750   0.55599   0.01267  Uiso   1.00
Fe3310 Fe    0.68750   0.18750   0.60287   0.01267  Uiso   1.00
Fe3311 Fe    0.68750   0.43750   0.55599   0.01267  Uiso   1.00
Fe3312 Fe    0.68750   0.43750   0.60287   0.01267  Uiso   1.00
Fe3313 Fe    0.93750   0.18750   0.55599   0.01267  Uiso   1.00
Fe3314 Fe    0.93750   0.18750   0.60287   0.01267  Uiso   1.00
Fe3315 Fe    0.93750   0.43750   0.55599   0.01267  Uiso   1.00
Fe3316 Fe    0.93750   0.43750   0.60287   0.01267  Uiso   1.00
Fe3317 Fe    0.56250   0.06250   0.55599   0.01267  Uiso   1.00
Fe3318 Fe    0.56250   0.06250   0.60287   0.01267  Uiso   1.00
Fe3319 Fe    0.56250   0.31250   0.55599   0.01267  Uiso   1.00
Fe3320 Fe    0.56250   0.31250   0.60287   0.01267  Uiso   1.00
Fe3321 Fe    0.81250   0.06250   0.55599   0.01267  Uiso   1.00
Fe3322 Fe    0.81250   0.06250   0.60287   0.01267  Uiso   1.00
Fe3323 Fe    0.81250   0.31250   0.55599   0.01267  Uiso   1.00
Fe3324 Fe    0.81250   0.31250   0.60287   0.01267  Uiso   1.00
Fe3325 Fe    0.50000   0.00000   0.54428   0.01267  Uiso   1.00
Fe3326 Fe    0.50000   0.00000   0.59115   0.01267  Uiso   1.00
Fe3327 Fe    0.50000   0.25000   0.54428   0.01267  Uiso   1.00
Fe3328 Fe    0.50000   0.25000   0.59115   0.01267  Uiso   1.00
Fe3329 Fe    0.75000   0.00000   0.54428   0.01267  Uiso   1.00
Fe3330 Fe    0.75000   0.00000   0.59115   0.01267  Uiso   1.00
Fe3331 Fe    0.75000   0.25000   0.54428   0.01267  Uiso   1.00
Fe3332 Fe    0.75000   0.25000   0.59115   0.01267  Uiso   1.00
Fe3333 Fe    0.62500   0.00000   0.98957   0.01267  Uiso   1.00
Fe3334 Fe    0.62500   0.00000   0.56771   0.01267  Uiso   1.00
Fe3335 Fe    0.62500   0.25000   0.98957   0.01267  Uiso   1.00
Fe3336 Fe    0.62500   0.25000   0.56771   0.01267  Uiso   1.00
Fe3337 Fe    0.87500   0.00000   0.98957   0.01267  Uiso   1.00
Fe3338 Fe    0.87500   0.00000   0.56771   0.01267  Uiso   1.00
Fe3339 Fe    0.87500   0.25000   0.98957   0.01267  Uiso   1.00
Fe3340 Fe    0.87500   0.25000   0.56771   0.01267  Uiso   1.00
Fe3341 Fe    0.50000   0.12500   0.98957   0.01267  Uiso   1.00
Fe3342 Fe    0.50000   0.12500   0.56771   0.01267  Uiso   1.00
Fe3343 Fe    0.50000   0.37500   0.98957   0.01267  Uiso   1.00
Fe3344 Fe    0.50000   0.37500   0.56771   0.01267  Uiso   1.00
Fe3345 Fe    0.75000   0.12500   0.98957   0.01267  Uiso   1.00
Fe3346 Fe    0.75000   0.12500   0.56771   0.01267  Uiso   1.00
Fe3347 Fe    0.75000   0.37500   0.98957   0.01267  Uiso   1.00
Fe3348 Fe    0.75000   0.37500   0.56771   0.01267  Uiso   1.00
Fe3349 Fe    0.62500   0.12500   0.54428   0.01267  Uiso   1.00
Fe3350 Fe    0.62500   0.12500   0.59115   0.01267  Uiso   1.00
Fe3351 Fe    0.62500   0.37500   0.54428   0.01267  Uiso   1.00
Fe3352 Fe    0.62500   0.37500   0.59115   0.01267  Uiso   1.00
Fe3353 Fe    0.87500   0.12500   0.54428   0.01267  Uiso   1.00
Fe3354 Fe    0.87500   0.12500   0.59115   0.01267  Uiso   1.00
Fe3355 Fe    0.87500   0.37500   0.54428   0.01267  Uiso   1.00
Fe3356 Fe    0.87500   0.37500   0.59115   0.01267  Uiso   1.00
Cr3357 Cr    0.18750   0.68750   0.53256   0.01267  Uiso   1.00
Cr3358 Cr    0.18750   0.68750   0.57943   0.01267  Uiso   1.00
Cr3359 Cr    0.18750   0.93750   0.53256   0.01267  Uiso   1.00
Cr3360 Cr    0.18750   0.93750   0.57943   0.01267  Uiso   1.00
Cr3361 Cr    0.43750   0.68750   0.53256   0.01267  Uiso   1.00
Cr3362 Cr    0.43750   0.68750   0.57943   0.01267  Uiso   1.00
Cr3363 Cr    0.43750   0.93750   0.53256   0.01267  Uiso   1.00
Cr3364 Cr    0.43750   0.93750   0.57943   0.01267  Uiso   1.00
Cr3365 Cr    0.06250   0.56250   0.53256   0.01267  Uiso   1.00
Cr3366 Cr    0.06250   0.56250   0.57943   0.01267  Uiso   1.00
Cr3367 Cr    0.06250   0.81250   0.53256   0.01267  Uiso   1.00
Cr3368 Cr    0.06250   0.81250   0.57943   0.01267  Uiso   1.00
Cr3369 Cr    0.31250   0.56250   0.53256   0.01267  Uiso   1.00
Cr3370 Cr    0.31250   0.56250   0.57943   0.01267  Uiso   1.00
Cr3371 Cr    0.31250   0.81250   0.53256   0.01267  Uiso   1.00
Cr3372 Cr    0.31250   0.81250   0.57943   0.01267  Uiso   1.00
Cr3373 Cr    0.06250   0.68750   0.55599   0.01267  Uiso   1.00
Cr3374 Cr    0.06250   0.68750   0.60287   0.01267  Uiso   1.00
Cr3375 Cr    0.06250   0.93750   0.55599   0.01267  Uiso   1.00
Cr3376 Cr    0.06250   0.93750   0.60287   0.01267  Uiso   1.00
Cr3377 Cr    0.31250   0.68750   0.55599   0.01267  Uiso   1.00
Cr3378 Cr    0.31250   0.68750   0.60287   0.01267  Uiso   1.00
Cr3379 Cr    0.31250   0.93750   0.55599   0.01267  Uiso   1.00
Cr3380 Cr    0.31250   0.93750   0.60287   0.01267  Uiso   1.00
Cr3381 Cr    0.18750   0.56250   0.55599   0.01267  Uiso   1.00
Cr3382 Cr    0.18750   0.56250   0.60287   0.01267  Uiso   1.00
Cr3383 Cr    0.18750   0.81250   0.55599   0.01267  Uiso   1.00
Cr3384 Cr    0.18750   0.81250   0.60287   0.01267  Uiso   1.00
Cr3385 Cr    0.43750   0.56250   0.55599   0.01267  Uiso   1.00
Cr3386 Cr    0.43750   0.56250   0.60287   0.01267  Uiso   1.00
Cr3387 Cr    0.43750   0.81250   0.55599   0.01267  Uiso   1.00
Cr3388 Cr    0.43750   0.81250   0.60287   0.01267  Uiso   1.00
Fe3389 Fe    0.18750   0.56250   0.53256   0.01267  Uiso   1.00
Fe3390 Fe    0.18750   0.56250   0.57943   0.01267  Uiso   1.00
Fe3391 Fe    0.18750   0.81250   0.53256   0.01267  Uiso   1.00
Fe3392 Fe    0.18750   0.81250   0.57943   0.01267  Uiso   1.00
Fe3393 Fe    0.43750   0.56250   0.53256   0.01267  Uiso   1.00
Fe3394 Fe    0.43750   0.56250   0.57943   0.01267  Uiso   1.00
Fe3395 Fe    0.43750   0.81250   0.53256   0.01267  Uiso   1.00
Fe3396 Fe    0.43750   0.81250   0.57943   0.01267  Uiso   1.00
Fe3397 Fe    0.06250   0.68750   0.53256   0.01267  Uiso   1.00
Fe3398 Fe    0.06250   0.68750   0.57943   0.01267  Uiso   1.00
Fe3399 Fe    0.06250   0.93750   0.53256   0.01267  Uiso   1.00
Fe3400 Fe    0.06250   0.93750   0.57943   0.01267  Uiso   1.00
Fe3401 Fe    0.31250   0.68750   0.53256   0.01267  Uiso   1.00
Fe3402 Fe    0.31250   0.68750   0.57943   0.01267  Uiso   1.00
Fe3403 Fe    0.31250   0.93750   0.53256   0.01267  Uiso   1.00
Fe3404 Fe    0.31250   0.93750   0.57943   0.01267  Uiso   1.00
Fe3405 Fe    0.00000   0.50000   0.98957   0.01267  Uiso   1.00
Fe3406 Fe    0.00000   0.50000   0.56771   0.01267  Uiso   1.00
Fe3407 Fe    0.00000   0.75000   0.98957   0.01267  Uiso   1.00
Fe3408 Fe    0.00000   0.75000   0.56771   0.01267  Uiso   1.00
Fe3409 Fe    0.25000   0.50000   0.98957   0.01267  Uiso   1.00
Fe3410 Fe    0.25000   0.50000   0.56771   0.01267  Uiso   1.00
Fe3411 Fe    0.25000   0.75000   0.98957   0.01267  Uiso   1.00
Fe3412 Fe    0.25000   0.75000   0.56771   0.01267  Uiso   1.00
Fe3413 Fe    0.12500   0.62500   0.98957   0.01267  Uiso   1.00
Fe3414 Fe    0.12500   0.62500   0.56771   0.01267  Uiso   1.00
Fe3415 Fe    0.12500   0.87500   0.98957   0.01267  Uiso   1.00
Fe3416 Fe    0.12500   0.87500   0.56771   0.01267  Uiso   1.00
Fe3417 Fe    0.37500   0.62500   0.98957   0.01267  Uiso   1.00
Fe3418 Fe    0.37500   0.62500   0.56771   0.01267  Uiso   1.00
Fe3419 Fe    0.37500   0.87500   0.98957   0.01267  Uiso   1.00
Fe3420 Fe    0.37500   0.87500   0.56771   0.01267  Uiso   1.00
Fe3421 Fe    0.12500   0.50000   0.54428   0.01267  Uiso   1.00
Fe3422 Fe    0.12500   0.50000   0.59115   0.01267  Uiso   1.00
Fe3423 Fe    0.12500   0.75000   0.54428   0.01267  Uiso   1.00
Fe3424 Fe    0.12500   0.75000   0.59115   0.01267  Uiso   1.00
Fe3425 Fe    0.37500   0.50000   0.54428   0.01267  Uiso   1.00
Fe3426 Fe    0.37500   0.50000   0.59115   0.01267  Uiso   1.00
Fe3427 Fe    0.37500   0.75000   0.54428   0.01267  Uiso   1.00
Fe3428 Fe    0.37500   0.75000   0.59115   0.01267  Uiso   1.00
Fe3429 Fe    0.00000   0.62500   0.54428   0.01267  Uiso   1.00
Fe3430 Fe    0.00000   0.62500   0.59115   0.01267  Uiso   1.00
Fe3431 Fe    0.00000   0.87500   0.54428   0.01267  Uiso   1.00
Fe3432 Fe    0.00000   0.87500   0.59115   0.01267  Uiso   1.00
Fe3433 Fe    0.25000   0.62500   0.54428   0.01267  Uiso   1.00
Fe3434 Fe    0.25000   0.62500   0.59115   0.01267  Uiso   1.00
Fe3435 Fe    0.25000   0.87500   0.54428   0.01267  Uiso   1.00
Fe3436 Fe    0.25000   0.87500   0.59115   0.01267  Uiso   1.00
Fe3437 Fe    0.18750   0.68750   0.55599   0.01267  Uiso   1.00
Fe3438 Fe    0.18750   0.68750   0.60287   0.01267  Uiso   1.00
Fe3439 Fe    0.18750   0.93750   0.55599   0.01267  Uiso   1.00
Fe3440 Fe    0.18750   0.93750   0.60287   0.01267  Uiso   1.00
Fe3441 Fe    0.43750   0.68750   0.55599   0.01267  Uiso   1.00
Fe3442 Fe    0.43750   0.68750   0.60287   0.01267  Uiso   1.00
Fe3443 Fe    0.43750   0.93750   0.55599   0.01267  Uiso   1.00
Fe3444 Fe    0.43750   0.93750   0.60287   0.01267  Uiso   1.00
Fe3445 Fe    0.06250   0.56250   0.55599   0.01267  Uiso   1.00
Fe3446 Fe    0.06250   0.56250   0.60287   0.01267  Uiso   1.00
Fe3447 Fe    0.06250   0.81250   0.55599   0.01267  Uiso   1.00
Fe3448 Fe    0.06250   0.81250   0.60287   0.01267  Uiso   1.00
Fe3449 Fe    0.31250   0.56250   0.55599   0.01267  Uiso   1.00
Fe3450 Fe    0.31250   0.56250   0.60287   0.01267  Uiso   1.00
Fe3451 Fe    0.31250   0.81250   0.55599   0.01267  Uiso   1.00
Fe3452 Fe    0.31250   0.81250   0.60287   0.01267  Uiso   1.00
Fe3453 Fe    0.00000   0.50000   0.54428   0.01267  Uiso   1.00
Fe3454 Fe    0.00000   0.50000   0.59115   0.01267  Uiso   1.00
Fe3455 Fe    0.00000   0.75000   0.54428   0.01267  Uiso   1.00
Fe3456 Fe    0.00000   0.75000   0.59115   0.01267  Uiso   1.00
Fe3457 Fe    0.25000   0.50000   0.54428   0.01267  Uiso   1.00
Fe3458 Fe    0.25000   0.50000   0.59115   0.01267  Uiso   1.00
Fe3459 Fe    0.25000   0.75000   0.54428   0.01267  Uiso   1.00
Fe3460 Fe    0.25000   0.75000   0.59115   0.01267  Uiso   1.00
Fe3461 Fe    0.12500   0.50000   0.98957   0.01267  Uiso   1.00
Fe3462 Fe    0.12500   0.50000   0.56771   0.01267  Uiso   1.00
Fe3463 Fe    0.12500   0.75000   0.98957   0.01267  Uiso   1.00
Fe3464 Fe    0.12500   0.75000   0.56771   0.01267  Uiso   1.00
Fe3465 Fe    0.37500   0.50000   0.98957   0.01267  Uiso   1.00
Fe3466 Fe    0.37500   0.50000   0.56771   0.01267  Uiso   1.00
Fe3467 Fe    0.37500   0.75000   0.98957   0.01267  Uiso   1.00
Fe3468 Fe    0.37500   0.75000   0.56771   0.01267  Uiso   1.00
Fe3469 Fe    0.00000   0.62500   0.98957   0.01267  Uiso   1.00
Fe3470 Fe    0.00000   0.62500   0.56771   0.01267  Uiso   1.00
Fe3471 Fe    0.00000   0.87500   0.98957   0.01267  Uiso   1.00
Fe3472 Fe    0.00000   0.87500   0.56771   0.01267  Uiso   1.00
Fe3473 Fe    0.25000   0.62500   0.98957   0.01267  Uiso   1.00
Fe3474 Fe    0.25000   0.62500   0.56771   0.01267  Uiso   1.00
Fe3475 Fe    0.25000   0.87500   0.98957   0.01267  Uiso   1.00
Fe3476 Fe    0.25000   0.87500   0.56771   0.01267  Uiso   1.00
Fe3477 Fe    0.12500   0.62500   0.54428   0.01267  Uiso   1.00
Fe3478 Fe    0.12500   0.62500   0.59115   0.01267  Uiso   1.00
Fe3479 Fe    0.12500   0.87500   0.54428   0.01267  Uiso   1.00
Fe3480 Fe    0.12500   0.87500   0.59115   0.01267  Uiso   1.00
Fe3481 Fe    0.37500   0.62500   0.54428   0.01267  Uiso   1.00
Fe3482 Fe    0.37500   0.62500   0.59115   0.01267  Uiso   1.00
Fe3483 Fe    0.37500   0.87500   0.54428   0.01267  Uiso   1.00
Fe3484 Fe    0.37500   0.87500   0.59115   0.01267  Uiso   1.00
Cr3485 Cr    0.68750   0.68750   0.53256   0.01267  Uiso   1.00
Cr3486 Cr    0.68750   0.68750   0.57943   0.01267  Uiso   1.00
Cr3487 Cr    0.68750   0.93750   0.53256   0.01267  Uiso   1.00
Cr3488 Cr    0.68750   0.93750   0.57943   0.01267  Uiso   1.00
Cr3489 Cr    0.93750   0.68750   0.53256   0.01267  Uiso   1.00
Cr3490 Cr    0.93750   0.68750   0.57943   0.01267  Uiso   1.00
Cr3491 Cr    0.93750   0.93750   0.53256   0.01267  Uiso   1.00
Cr3492 Cr    0.93750   0.93750   0.57943   0.01267  Uiso   1.00
Cr3493 Cr    0.56250   0.56250   0.53256   0.01267  Uiso   1.00
Cr3494 Cr    0.56250   0.56250   0.57943   0.01267  Uiso   1.00
Cr3495 Cr    0.56250   0.81250   0.53256   0.01267  Uiso   1.00
Cr3496 Cr    0.56250   0.81250   0.57943   0.01267  Uiso   1.00
Cr3497 Cr    0.81250   0.56250   0.53256   0.01267  Uiso   1.00
Cr3498 Cr    0.81250   0.56250   0.57943   0.01267  Uiso   1.00
Cr3499 Cr    0.81250   0.81250   0.53256   0.01267  Uiso   1.00
Cr3500 Cr    0.81250   0.81250   0.57943   0.01267  Uiso   1.00
Cr3501 Cr    0.56250   0.68750   0.55599   0.01267  Uiso   1.00
Cr3502 Cr    0.56250   0.68750   0.60287   0.01267  Uiso   1.00
Cr3503 Cr    0.56250   0.93750   0.55599   0.01267  Uiso   1.00
Cr3504 Cr    0.56250   0.93750   0.60287   0.01267  Uiso   1.00
Cr3505 Cr    0.81250   0.68750   0.55599   0.01267  Uiso   1.00
Cr3506 Cr    0.81250   0.68750   0.60287   0.01267  Uiso   1.00
Cr3507 Cr    0.81250   0.93750   0.55599   0.01267  Uiso   1.00
Cr3508 Cr    0.81250   0.93750   0.60287   0.01267  Uiso   1.00
Cr3509 Cr    0.68750   0.56250   0.55599   0.01267  Uiso   1.00
Cr3510 Cr    0.68750   0.56250   0.60287   0.01267  Uiso   1.00
Cr3511 Cr    0.68750   0.81250   0.55599   0.01267  Uiso   1.00
Cr3512 Cr    0.68750   0.81250   0.60287   0.01267  Uiso   1.00
Cr3513 Cr    0.93750   0.56250   0.55599   0.01267  Uiso   1.00
Cr3514 Cr    0.93750   0.56250   0.60287   0.01267  Uiso   1.00
Cr3515 Cr    0.93750   0.81250   0.55599   0.01267  Uiso   1.00
Cr3516 Cr    0.93750   0.81250   0.60287   0.01267  Uiso   1.00
Fe3517 Fe    0.68750   0.56250   0.53256   0.01267  Uiso   1.00
Fe3518 Fe    0.68750   0.56250   0.57943   0.01267  Uiso   1.00
Fe3519 Fe    0.68750   0.81250   0.53256   0.01267  Uiso   1.00
Fe3520 Fe    0.68750   0.81250   0.57943   0.01267  Uiso   1.00
Fe3521 Fe    0.93750   0.56250   0.53256   0.01267  Uiso   1.00
Fe3522 Fe    0.93750   0.56250   0.57943   0.01267  Uiso   1.00
Fe3523 Fe    0.93750   0.81250   0.53256   0.01267  Uiso   1.00
Fe3524 Fe    0.93750   0.81250   0.57943   0.01267  Uiso   1.00
Fe3525 Fe    0.56250   0.68750   0.53256   0.01267  Uiso   1.00
Fe3526 Fe    0.56250   0.68750   0.57943   0.01267  Uiso   1.00
Fe3527 Fe    0.56250   0.93750   0.53256   0.01267  Uiso   1.00
Fe3528 Fe    0.56250   0.93750   0.57943   0.01267  Uiso   1.00
Fe3529 Fe    0.81250   0.68750   0.53256   0.01267  Uiso   1.00
Fe3530 Fe    0.81250   0.68750   0.57943   0.01267  Uiso   1.00
Fe3531 Fe    0.81250   0.93750   0.53256   0.01267  Uiso   1.00
Fe3532 Fe    0.81250   0.93750   0.57943   0.01267  Uiso   1.00
Fe3533 Fe    0.50000   0.50000   0.98957   0.01267  Uiso   1.00
Fe3534 Fe    0.50000   0.50000   0.56771   0.01267  Uiso   1.00
Fe3535 Fe    0.50000   0.75000   0.98957   0.01267  Uiso   1.00
Fe3536 Fe    0.50000   0.75000   0.56771   0.01267  Uiso   1.00
Fe3537 Fe    0.75000   0.50000   0.98957   0.01267  Uiso   1.00
Fe3538 Fe    0.75000   0.50000   0.56771   0.01267  Uiso   1.00
Fe3539 Fe    0.75000   0.75000   0.98957   0.01267  Uiso   1.00
Fe3540 Fe    0.75000   0.75000   0.56771   0.01267  Uiso   1.00
Fe3541 Fe    0.62500   0.62500   0.98957   0.01267  Uiso   1.00
Fe3542 Fe    0.62500   0.62500   0.56771   0.01267  Uiso   1.00
Fe3543 Fe    0.62500   0.87500   0.98957   0.01267  Uiso   1.00
Fe3544 Fe    0.62500   0.87500   0.56771   0.01267  Uiso   1.00
Fe3545 Fe    0.87500   0.62500   0.98957   0.01267  Uiso   1.00
Fe3546 Fe    0.87500   0.62500   0.56771   0.01267  Uiso   1.00
Fe3547 Fe    0.87500   0.87500   0.98957   0.01267  Uiso   1.00
Fe3548 Fe    0.87500   0.87500   0.56771   0.01267  Uiso   1.00
Fe3549 Fe    0.62500   0.50000   0.54428   0.01267  Uiso   1.00
Fe3550 Fe    0.62500   0.50000   0.59115   0.01267  Uiso   1.00
Fe3551 Fe    0.62500   0.75000   0.54428   0.01267  Uiso   1.00
Fe3552 Fe    0.62500   0.75000   0.59115   0.01267  Uiso   1.00
Fe3553 Fe    0.87500   0.50000   0.54428   0.01267  Uiso   1.00
Fe3554 Fe    0.87500   0.50000   0.59115   0.01267  Uiso   1.00
Fe3555 Fe    0.87500   0.75000   0.54428   0.01267  Uiso   1.00
Fe3556 Fe    0.87500   0.75000   0.59115   0.01267  Uiso   1.00
Fe3557 Fe    0.50000   0.62500   0.54428   0.01267  Uiso   1.00
Fe3558 Fe    0.50000   0.62500   0.59115   0.01267  Uiso   1.00
Fe3559 Fe    0.50000   0.87500   0.54428   0.01267  Uiso   1.00
Fe3560 Fe    0.50000   0.87500   0.59115   0.01267  Uiso   1.00
Fe3561 Fe    0.75000   0.62500   0.54428   0.01267  Uiso   1.00
Fe3562 Fe    0.75000   0.62500   0.59115   0.01267  Uiso   1.00
Fe3563 Fe    0.75000   0.87500   0.54428   0.01267  Uiso   1.00
Fe3564 Fe    0.75000   0.87500   0.59115   0.01267  Uiso   1.00
Fe3565 Fe    0.68750   0.68750   0.55599   0.01267  Uiso   1.00
Fe3566 Fe    0.68750   0.68750   0.60287   0.01267  Uiso   1.00
Fe3567 Fe    0.68750   0.93750   0.55599   0.01267  Uiso   1.00
Fe3568 Fe    0.68750   0.93750   0.60287   0.01267  Uiso   1.00
Fe3569 Fe    0.93750   0.68750   0.55599   0.01267  Uiso   1.00
Fe3570 Fe    0.93750   0.68750   0.60287   0.01267  Uiso   1.00
Fe3571 Fe    0.93750   0.93750   0.55599   0.01267  Uiso   1.00
Fe3572 Fe    0.93750   0.93750   0.60287   0.01267  Uiso   1.00
Fe3573 Fe    0.56250   0.56250   0.55599   0.01267  Uiso   1.00
Fe3574 Fe    0.56250   0.56250   0.60287   0.01267  Uiso   1.00
Fe3575 Fe    0.56250   0.81250   0.55599   0.01267  Uiso   1.00
Fe3576 Fe    0.56250   0.81250   0.60287   0.01267  Uiso   1.00
Fe3577 Fe    0.81250   0.56250   0.55599   0.01267  Uiso   1.00
Fe3578 Fe    0.81250   0.56250   0.60287   0.01267  Uiso   1.00
Fe3579 Fe    0.81250   0.81250   0.55599   0.01267  Uiso   1.00
Fe3580 Fe    0.81250   0.81250   0.60287   0.01267  Uiso   1.00
Fe3581 Fe    0.50000   0.50000   0.54428   0.01267  Uiso   1.00
Fe3582 Fe    0.50000   0.50000   0.59115   0.01267  Uiso   1.00
Fe3583 Fe    0.50000   0.75000   0.54428   0.01267  Uiso   1.00
Fe3584 Fe    0.50000   0.75000   0.59115   0.01267  Uiso   1.00
Fe3585 Fe    0.75000   0.50000   0.54428   0.01267  Uiso   1.00
Fe3586 Fe    0.75000   0.50000   0.59115   0.01267  Uiso   1.00
Fe3587 Fe    0.75000   0.75000   0.54428   0.01267  Uiso   1.00
Fe3588 Fe    0.75000   0.75000   0.59115   0.01267  Uiso   1.00
Fe3589 Fe    0.62500   0.50000   0.98957   0.01267  Uiso   1.00
Fe3590 Fe    0.62500   0.50000   0.56771   0.01267  Uiso   1.00
Fe3591 Fe    0.62500   0.75000   0.98957   0.01267  Uiso   1.00
Fe3592 Fe    0.62500   0.75000   0.56771   0.01267  Uiso   1.00
Fe3593 Fe    0.87500   0.50000   0.98957   0.01267  Uiso   1.00
Fe3594 Fe    0.87500   0.50000   0.56771   0.01267  Uiso   1.00
Fe3595 Fe    0.87500   0.75000   0.98957   0.01267  Uiso   1.00
Fe3596 Fe    0.87500   0.75000   0.56771   0.01267  Uiso   1.00
Fe3597 Fe    0.50000   0.62500   0.98957   0.01267  Uiso   1.00
Fe3598 Fe    0.50000   0.62500   0.56771   0.01267  Uiso   1.00
Fe3599 Fe    0.50000   0.87500   0.98957   0.01267  Uiso   1.00
Fe3600 Fe    0.50000   0.87500   0.56771   0.01267  Uiso   1.00
Fe3601 Fe    0.75000   0.62500   0.98957   0.01267  Uiso   1.00
Fe3602 Fe    0.75000   0.62500   0.56771   0.01267  Uiso   1.00
Fe3603 Fe    0.75000   0.87500   0.98957   0.01267  Uiso   1.00
Fe3604 Fe    0.75000   0.87500   0.56771   0.01267  Uiso   1.00
Fe3605 Fe    0.62500   0.62500   0.54428   0.01267  Uiso   1.00
Fe3606 Fe    0.62500   0.62500   0.59115   0.01267  Uiso   1.00
Fe3607 Fe    0.62500   0.87500   0.54428   0.01267  Uiso   1.00
Fe3608 Fe    0.62500   0.87500   0.59115   0.01267  Uiso   1.00
Fe3609 Fe    0.87500   0.62500   0.54428   0.01267  Uiso   1.00
Fe3610 Fe    0.87500   0.62500   0.59115   0.01267  Uiso   1.00
Fe3611 Fe    0.87500   0.87500   0.54428   0.01267  Uiso   1.00
Fe3612 Fe    0.87500   0.87500   0.59115   0.01267  Uiso   1.00
Cr3613 Cr    0.18750   0.18750   0.62630   0.01267  Uiso   1.00
Cr3614 Cr    0.18750   0.18750   0.67318   0.01267  Uiso   1.00
Cr3615 Cr    0.18750   0.43750   0.62630   0.01267  Uiso   1.00
Cr3616 Cr    0.18750   0.43750   0.67318   0.01267  Uiso   1.00
Cr3617 Cr    0.43750   0.18750   0.62630   0.01267  Uiso   1.00
Cr3618 Cr    0.43750   0.18750   0.67318   0.01267  Uiso   1.00
Cr3619 Cr    0.43750   0.43750   0.62630   0.01267  Uiso   1.00
Cr3620 Cr    0.43750   0.43750   0.67318   0.01267  Uiso   1.00
Cr3621 Cr    0.06250   0.06250   0.62630   0.01267  Uiso   1.00
Cr3622 Cr    0.06250   0.06250   0.67318   0.01267  Uiso   1.00
Cr3623 Cr    0.06250   0.31250   0.62630   0.01267  Uiso   1.00
Cr3624 Cr    0.06250   0.31250   0.67318   0.01267  Uiso   1.00
Cr3625 Cr    0.31250   0.06250   0.62630   0.01267  Uiso   1.00
Cr3626 Cr    0.31250   0.06250   0.67318   0.01267  Uiso   1.00
Cr3627 Cr    0.31250   0.31250   0.62630   0.01267  Uiso   1.00
Cr3628 Cr    0.31250   0.31250   0.67318   0.01267  Uiso   1.00
Cr3629 Cr    0.06250   0.18750   0.64974   0.01267  Uiso   1.00
Cr3630 Cr    0.06250   0.18750   0.69661   0.01267  Uiso   1.00
Cr3631 Cr    0.06250   0.43750   0.64974   0.01267  Uiso   1.00
Cr3632 Cr    0.06250   0.43750   0.69661   0.01267  Uiso   1.00
Cr3633 Cr    0.31250   0.18750   0.64974   0.01267  Uiso   1.00
Cr3634 Cr    0.31250   0.18750   0.69661   0.01267  Uiso   1.00
Cr3635 Cr    0.31250   0.43750   0.64974   0.01267  Uiso   1.00
Cr3636 Cr    0.31250   0.43750   0.69661   0.01267  Uiso   1.00
Cr3637 Cr    0.18750   0.06250   0.64974   0.01267  Uiso   1.00
Cr3638 Cr    0.18750   0.06250   0.69661   0.01267  Uiso   1.00
Cr3639 Cr    0.18750   0.31250   0.64974   0.01267  Uiso   1.00
Cr3640 Cr    0.18750   0.31250   0.69661   0.01267  Uiso   1.00
Cr3641 Cr    0.43750   0.06250   0.64974   0.01267  Uiso   1.00
Cr3642 Cr    0.43750   0.06250   0.69661   0.01267  Uiso   1.00
Cr3643 Cr    0.43750   0.31250   0.64974   0.01267  Uiso   1.00
Cr3644 Cr    0.43750   0.31250   0.69661   0.01267  Uiso   1.00
Fe3645 Fe    0.18750   0.06250   0.62630   0.01267  Uiso   1.00
Fe3646 Fe    0.18750   0.06250   0.67318   0.01267  Uiso   1.00
Fe3647 Fe    0.18750   0.31250   0.62630   0.01267  Uiso   1.00
Fe3648 Fe    0.18750   0.31250   0.67318   0.01267  Uiso   1.00
Fe3649 Fe    0.43750   0.06250   0.62630   0.01267  Uiso   1.00
Fe3650 Fe    0.43750   0.06250   0.67318   0.01267  Uiso   1.00
Fe3651 Fe    0.43750   0.31250   0.62630   0.01267  Uiso   1.00
Fe3652 Fe    0.43750   0.31250   0.67318   0.01267  Uiso   1.00
Fe3653 Fe    0.06250   0.18750   0.62630   0.01267  Uiso   1.00
Fe3654 Fe    0.06250   0.18750   0.67318   0.01267  Uiso   1.00
Fe3655 Fe    0.06250   0.43750   0.62630   0.01267  Uiso   1.00
Fe3656 Fe    0.06250   0.43750   0.67318   0.01267  Uiso   1.00
Fe3657 Fe    0.31250   0.18750   0.62630   0.01267  Uiso   1.00
Fe3658 Fe    0.31250   0.18750   0.67318   0.01267  Uiso   1.00
Fe3659 Fe    0.31250   0.43750   0.62630   0.01267  Uiso   1.00
Fe3660 Fe    0.31250   0.43750   0.67318   0.01267  Uiso   1.00
Fe3661 Fe    0.00000   0.00000   0.61459   0.01267  Uiso   1.00
Fe3662 Fe    0.00000   0.00000   0.66146   0.01267  Uiso   1.00
Fe3663 Fe    0.00000   0.25000   0.61459   0.01267  Uiso   1.00
Fe3664 Fe    0.00000   0.25000   0.66146   0.01267  Uiso   1.00
Fe3665 Fe    0.25000   0.00000   0.61459   0.01267  Uiso   1.00
Fe3666 Fe    0.25000   0.00000   0.66146   0.01267  Uiso   1.00
Fe3667 Fe    0.25000   0.25000   0.61459   0.01267  Uiso   1.00
Fe3668 Fe    0.25000   0.25000   0.66146   0.01267  Uiso   1.00
Fe3669 Fe    0.12500   0.12500   0.61459   0.01267  Uiso   1.00
Fe3670 Fe    0.12500   0.12500   0.66146   0.01267  Uiso   1.00
Fe3671 Fe    0.12500   0.37500   0.61459   0.01267  Uiso   1.00
Fe3672 Fe    0.12500   0.37500   0.66146   0.01267  Uiso   1.00
Fe3673 Fe    0.37500   0.12500   0.61459   0.01267  Uiso   1.00
Fe3674 Fe    0.37500   0.12500   0.66146   0.01267  Uiso   1.00
Fe3675 Fe    0.37500   0.37500   0.61459   0.01267  Uiso   1.00
Fe3676 Fe    0.37500   0.37500   0.66146   0.01267  Uiso   1.00
Fe3677 Fe    0.12500   0.00000   0.63802   0.01267  Uiso   1.00
Fe3678 Fe    0.12500   0.00000   0.68489   0.01267  Uiso   1.00
Fe3679 Fe    0.12500   0.25000   0.63802   0.01267  Uiso   1.00
Fe3680 Fe    0.12500   0.25000   0.68489   0.01267  Uiso   1.00
Fe3681 Fe    0.37500   0.00000   0.63802   0.01267  Uiso   1.00
Fe3682 Fe    0.37500   0.00000   0.68489   0.01267  Uiso   1.00
Fe3683 Fe    0.37500   0.25000   0.63802   0.01267  Uiso   1.00
Fe3684 Fe    0.37500   0.25000   0.68489   0.01267  Uiso   1.00
Fe3685 Fe    0.00000   0.12500   0.63802   0.01267  Uiso   1.00
Fe3686 Fe    0.00000   0.12500   0.68489   0.01267  Uiso   1.00
Fe3687 Fe    0.00000   0.37500   0.63802   0.01267  Uiso   1.00
Fe3688 Fe    0.00000   0.37500   0.68489   0.01267  Uiso   1.00
Fe3689 Fe    0.25000   0.12500   0.63802   0.01267  Uiso   1.00
Fe3690 Fe    0.25000   0.12500   0.68489   0.01267  Uiso   1.00
Fe3691 Fe    0.25000   0.37500   0.63802   0.01267  Uiso   1.00
Fe3692 Fe    0.25000   0.37500   0.68489   0.01267  Uiso   1.00
Fe3693 Fe    0.18750   0.18750   0.64974   0.01267  Uiso   1.00
Fe3694 Fe    0.18750   0.18750   0.69661   0.01267  Uiso   1.00
Fe3695 Fe    0.18750   0.43750   0.64974   0.01267  Uiso   1.00
Fe3696 Fe    0.18750   0.43750   0.69661   0.01267  Uiso   1.00
Fe3697 Fe    0.43750   0.18750   0.64974   0.01267  Uiso   1.00
Fe3698 Fe    0.43750   0.18750   0.69661   0.01267  Uiso   1.00
Fe3699 Fe    0.43750   0.43750   0.64974   0.01267  Uiso   1.00
Fe3700 Fe    0.43750   0.43750   0.69661   0.01267  Uiso   1.00
Fe3701 Fe    0.06250   0.06250   0.64974   0.01267  Uiso   1.00
Fe3702 Fe    0.06250   0.06250   0.69661   0.01267  Uiso   1.00
Fe3703 Fe    0.06250   0.31250   0.64974   0.01267  Uiso   1.00
Fe3704 Fe    0.06250   0.31250   0.69661   0.01267  Uiso   1.00
Fe3705 Fe    0.31250   0.06250   0.64974   0.01267  Uiso   1.00
Fe3706 Fe    0.31250   0.06250   0.69661   0.01267  Uiso   1.00
Fe3707 Fe    0.31250   0.31250   0.64974   0.01267  Uiso   1.00
Fe3708 Fe    0.31250   0.31250   0.69661   0.01267  Uiso   1.00
Fe3709 Fe    0.00000   0.00000   0.63802   0.01267  Uiso   1.00
Fe3710 Fe    0.00000   0.00000   0.68489   0.01267  Uiso   1.00
Fe3711 Fe    0.00000   0.25000   0.63802   0.01267  Uiso   1.00
Fe3712 Fe    0.00000   0.25000   0.68489   0.01267  Uiso   1.00
Fe3713 Fe    0.25000   0.00000   0.63802   0.01267  Uiso   1.00
Fe3714 Fe    0.25000   0.00000   0.68489   0.01267  Uiso   1.00
Fe3715 Fe    0.25000   0.25000   0.63802   0.01267  Uiso   1.00
Fe3716 Fe    0.25000   0.25000   0.68489   0.01267  Uiso   1.00
Fe3717 Fe    0.12500   0.00000   0.61459   0.01267  Uiso   1.00
Fe3718 Fe    0.12500   0.00000   0.66146   0.01267  Uiso   1.00
Fe3719 Fe    0.12500   0.25000   0.61459   0.01267  Uiso   1.00
Fe3720 Fe    0.12500   0.25000   0.66146   0.01267  Uiso   1.00
Fe3721 Fe    0.37500   0.00000   0.61459   0.01267  Uiso   1.00
Fe3722 Fe    0.37500   0.00000   0.66146   0.01267  Uiso   1.00
Fe3723 Fe    0.37500   0.25000   0.61459   0.01267  Uiso   1.00
Fe3724 Fe    0.37500   0.25000   0.66146   0.01267  Uiso   1.00
Fe3725 Fe    0.00000   0.12500   0.61459   0.01267  Uiso   1.00
Fe3726 Fe    0.00000   0.12500   0.66146   0.01267  Uiso   1.00
Fe3727 Fe    0.00000   0.37500   0.61459   0.01267  Uiso   1.00
Fe3728 Fe    0.00000   0.37500   0.66146   0.01267  Uiso   1.00
Fe3729 Fe    0.25000   0.12500   0.61459   0.01267  Uiso   1.00
Fe3730 Fe    0.25000   0.12500   0.66146   0.01267  Uiso   1.00
Fe3731 Fe    0.25000   0.37500   0.61459   0.01267  Uiso   1.00
Fe3732 Fe    0.25000   0.37500   0.66146   0.01267  Uiso   1.00
Fe3733 Fe    0.12500   0.12500   0.63802   0.01267  Uiso   1.00
Fe3734 Fe    0.12500   0.12500   0.68489   0.01267  Uiso   1.00
Fe3735 Fe    0.12500   0.37500   0.63802   0.01267  Uiso   1.00
Fe3736 Fe    0.12500   0.37500   0.68489   0.01267  Uiso   1.00
Fe3737 Fe    0.37500   0.12500   0.63802   0.01267  Uiso   1.00
Fe3738 Fe    0.37500   0.12500   0.68489   0.01267  Uiso   1.00
Fe3739 Fe    0.37500   0.37500   0.63802   0.01267  Uiso   1.00
Fe3740 Fe    0.37500   0.37500   0.68489   0.01267  Uiso   1.00
Cr3741 Cr    0.68750   0.18750   0.62630   0.01267  Uiso   1.00
Cr3742 Cr    0.68750   0.18750   0.67318   0.01267  Uiso   1.00
Cr3743 Cr    0.68750   0.43750   0.62630   0.01267  Uiso   1.00
Cr3744 Cr    0.68750   0.43750   0.67318   0.01267  Uiso   1.00
Cr3745 Cr    0.93750   0.18750   0.62630   0.01267  Uiso   1.00
Cr3746 Cr    0.93750   0.18750   0.67318   0.01267  Uiso   1.00
Cr3747 Cr    0.93750   0.43750   0.62630   0.01267  Uiso   1.00
Cr3748 Cr    0.93750   0.43750   0.67318   0.01267  Uiso   1.00
Cr3749 Cr    0.56250   0.06250   0.62630   0.01267  Uiso   1.00
Cr3750 Cr    0.56250   0.06250   0.67318   0.01267  Uiso   1.00
Cr3751 Cr    0.56250   0.31250   0.62630   0.01267  Uiso   1.00
Cr3752 Cr    0.56250   0.31250   0.67318   0.01267  Uiso   1.00
Cr3753 Cr    0.81250   0.06250   0.62630   0.01267  Uiso   1.00
Cr3754 Cr    0.81250   0.06250   0.67318   0.01267  Uiso   1.00
Cr3755 Cr    0.81250   0.31250   0.62630   0.01267  Uiso   1.00
Cr3756 Cr    0.81250   0.31250   0.67318   0.01267  Uiso   1.00
Cr3757 Cr    0.56250   0.18750   0.64974   0.01267  Uiso   1.00
Cr3758 Cr    0.56250   0.18750   0.69661   0.01267  Uiso   1.00
Cr3759 Cr    0.56250   0.43750   0.64974   0.01267  Uiso   1.00
Cr3760 Cr    0.56250   0.43750   0.69661   0.01267  Uiso   1.00
Cr3761 Cr    0.81250   0.18750   0.64974   0.01267  Uiso   1.00
Cr3762 Cr    0.81250   0.18750   0.69661   0.01267  Uiso   1.00
Cr3763 Cr    0.81250   0.43750   0.64974   0.01267  Uiso   1.00
Cr3764 Cr    0.81250   0.43750   0.69661   0.01267  Uiso   1.00
Cr3765 Cr    0.68750   0.06250   0.64974   0.01267  Uiso   1.00
Cr3766 Cr    0.68750   0.06250   0.69661   0.01267  Uiso   1.00
Cr3767 Cr    0.68750   0.31250   0.64974   0.01267  Uiso   1.00
Cr3768 Cr    0.68750   0.31250   0.69661   0.01267  Uiso   1.00
Cr3769 Cr    0.93750   0.06250   0.64974   0.01267  Uiso   1.00
Cr3770 Cr    0.93750   0.06250   0.69661   0.01267  Uiso   1.00
Cr3771 Cr    0.93750   0.31250   0.64974   0.01267  Uiso   1.00
Cr3772 Cr    0.93750   0.31250   0.69661   0.01267  Uiso   1.00
Fe3773 Fe    0.68750   0.06250   0.62630   0.01267  Uiso   1.00
Fe3774 Fe    0.68750   0.06250   0.67318   0.01267  Uiso   1.00
Fe3775 Fe    0.68750   0.31250   0.62630   0.01267  Uiso   1.00
Fe3776 Fe    0.68750   0.31250   0.67318   0.01267  Uiso   1.00
Fe3777 Fe    0.93750   0.06250   0.62630   0.01267  Uiso   1.00
Fe3778 Fe    0.93750   0.06250   0.67318   0.01267  Uiso   1.00
Fe3779 Fe    0.93750   0.31250   0.62630   0.01267  Uiso   1.00
Fe3780 Fe    0.93750   0.31250   0.67318   0.01267  Uiso   1.00
Fe3781 Fe    0.56250   0.18750   0.62630   0.01267  Uiso   1.00
Fe3782 Fe    0.56250   0.18750   0.67318   0.01267  Uiso   1.00
Fe3783 Fe    0.56250   0.43750   0.62630   0.01267  Uiso   1.00
Fe3784 Fe    0.56250   0.43750   0.67318   0.01267  Uiso   1.00
Fe3785 Fe    0.81250   0.18750   0.62630   0.01267  Uiso   1.00
Fe3786 Fe    0.81250   0.18750   0.67318   0.01267  Uiso   1.00
Fe3787 Fe    0.81250   0.43750   0.62630   0.01267  Uiso   1.00
Fe3788 Fe    0.81250   0.43750   0.67318   0.01267  Uiso   1.00
Fe3789 Fe    0.50000   0.00000   0.61459   0.01267  Uiso   1.00
Fe3790 Fe    0.50000   0.00000   0.66146   0.01267  Uiso   1.00
Fe3791 Fe    0.50000   0.25000   0.61459   0.01267  Uiso   1.00
Fe3792 Fe    0.50000   0.25000   0.66146   0.01267  Uiso   1.00
Fe3793 Fe    0.75000   0.00000   0.61459   0.01267  Uiso   1.00
Fe3794 Fe    0.75000   0.00000   0.66146   0.01267  Uiso   1.00
Fe3795 Fe    0.75000   0.25000   0.61459   0.01267  Uiso   1.00
Fe3796 Fe    0.75000   0.25000   0.66146   0.01267  Uiso   1.00
Fe3797 Fe    0.62500   0.12500   0.61459   0.01267  Uiso   1.00
Fe3798 Fe    0.62500   0.12500   0.66146   0.01267  Uiso   1.00
Fe3799 Fe    0.62500   0.37500   0.61459   0.01267  Uiso   1.00
Fe3800 Fe    0.62500   0.37500   0.66146   0.01267  Uiso   1.00
Fe3801 Fe    0.87500   0.12500   0.61459   0.01267  Uiso   1.00
Fe3802 Fe    0.87500   0.12500   0.66146   0.01267  Uiso   1.00
Fe3803 Fe    0.87500   0.37500   0.61459   0.01267  Uiso   1.00
Fe3804 Fe    0.87500   0.37500   0.66146   0.01267  Uiso   1.00
Fe3805 Fe    0.62500   0.00000   0.63802   0.01267  Uiso   1.00
Fe3806 Fe    0.62500   0.00000   0.68489   0.01267  Uiso   1.00
Fe3807 Fe    0.62500   0.25000   0.63802   0.01267  Uiso   1.00
Fe3808 Fe    0.62500   0.25000   0.68489   0.01267  Uiso   1.00
Fe3809 Fe    0.87500   0.00000   0.63802   0.01267  Uiso   1.00
Fe3810 Fe    0.87500   0.00000   0.68489   0.01267  Uiso   1.00
Fe3811 Fe    0.87500   0.25000   0.63802   0.01267  Uiso   1.00
Fe3812 Fe    0.87500   0.25000   0.68489   0.01267  Uiso   1.00
Fe3813 Fe    0.50000   0.12500   0.63802   0.01267  Uiso   1.00
Fe3814 Fe    0.50000   0.12500   0.68489   0.01267  Uiso   1.00
Fe3815 Fe    0.50000   0.37500   0.63802   0.01267  Uiso   1.00
Fe3816 Fe    0.50000   0.37500   0.68489   0.01267  Uiso   1.00
Fe3817 Fe    0.75000   0.12500   0.63802   0.01267  Uiso   1.00
Fe3818 Fe    0.75000   0.12500   0.68489   0.01267  Uiso   1.00
Fe3819 Fe    0.75000   0.37500   0.63802   0.01267  Uiso   1.00
Fe3820 Fe    0.75000   0.37500   0.68489   0.01267  Uiso   1.00
Fe3821 Fe    0.68750   0.18750   0.64974   0.01267  Uiso   1.00
Fe3822 Fe    0.68750   0.18750   0.69661   0.01267  Uiso   1.00
Fe3823 Fe    0.68750   0.43750   0.64974   0.01267  Uiso   1.00
Fe3824 Fe    0.68750   0.43750   0.69661   0.01267  Uiso   1.00
Fe3825 Fe    0.93750   0.18750   0.64974   0.01267  Uiso   1.00
Fe3826 Fe    0.93750   0.18750   0.69661   0.01267  Uiso   1.00
Fe3827 Fe    0.93750   0.43750   0.64974   0.01267  Uiso   1.00
Fe3828 Fe    0.93750   0.43750   0.69661   0.01267  Uiso   1.00
Fe3829 Fe    0.56250   0.06250   0.64974   0.01267  Uiso   1.00
Fe3830 Fe    0.56250   0.06250   0.69661   0.01267  Uiso   1.00
Fe3831 Fe    0.56250   0.31250   0.64974   0.01267  Uiso   1.00
Fe3832 Fe    0.56250   0.31250   0.69661   0.01267  Uiso   1.00
Fe3833 Fe    0.81250   0.06250   0.64974   0.01267  Uiso   1.00
Fe3834 Fe    0.81250   0.06250   0.69661   0.01267  Uiso   1.00
Fe3835 Fe    0.81250   0.31250   0.64974   0.01267  Uiso   1.00
Fe3836 Fe    0.81250   0.31250   0.69661   0.01267  Uiso   1.00
Fe3837 Fe    0.50000   0.00000   0.63802   0.01267  Uiso   1.00
Fe3838 Fe    0.50000   0.00000   0.68489   0.01267  Uiso   1.00
Fe3839 Fe    0.50000   0.25000   0.63802   0.01267  Uiso   1.00
Fe3840 Fe    0.50000   0.25000   0.68489   0.01267  Uiso   1.00
Fe3841 Fe    0.75000   0.00000   0.63802   0.01267  Uiso   1.00
Fe3842 Fe    0.75000   0.00000   0.68489   0.01267  Uiso   1.00
Fe3843 Fe    0.75000   0.25000   0.63802   0.01267  Uiso   1.00
Fe3844 Fe    0.75000   0.25000   0.68489   0.01267  Uiso   1.00
Fe3845 Fe    0.62500   0.00000   0.61459   0.01267  Uiso   1.00
Fe3846 Fe    0.62500   0.00000   0.66146   0.01267  Uiso   1.00
Fe3847 Fe    0.62500   0.25000   0.61459   0.01267  Uiso   1.00
Fe3848 Fe    0.62500   0.25000   0.66146   0.01267  Uiso   1.00
Fe3849 Fe    0.87500   0.00000   0.61459   0.01267  Uiso   1.00
Fe3850 Fe    0.87500   0.00000   0.66146   0.01267  Uiso   1.00
Fe3851 Fe    0.87500   0.25000   0.61459   0.01267  Uiso   1.00
Fe3852 Fe    0.87500   0.25000   0.66146   0.01267  Uiso   1.00
Fe3853 Fe    0.50000   0.12500   0.61459   0.01267  Uiso   1.00
Fe3854 Fe    0.50000   0.12500   0.66146   0.01267  Uiso   1.00
Fe3855 Fe    0.50000   0.37500   0.61459   0.01267  Uiso   1.00
Fe3856 Fe    0.50000   0.37500   0.66146   0.01267  Uiso   1.00
Fe3857 Fe    0.75000   0.12500   0.61459   0.01267  Uiso   1.00
Fe3858 Fe    0.75000   0.12500   0.66146   0.01267  Uiso   1.00
Fe3859 Fe    0.75000   0.37500   0.61459   0.01267  Uiso   1.00
Fe3860 Fe    0.75000   0.37500   0.66146   0.01267  Uiso   1.00
Fe3861 Fe    0.62500   0.12500   0.63802   0.01267  Uiso   1.00
Fe3862 Fe    0.62500   0.12500   0.68489   0.01267  Uiso   1.00
Fe3863 Fe    0.62500   0.37500   0.63802   0.01267  Uiso   1.00
Fe3864 Fe    0.62500   0.37500   0.68489   0.01267  Uiso   1.00
Fe3865 Fe    0.87500   0.12500   0.63802   0.01267  Uiso   1.00
Fe3866 Fe    0.87500   0.12500   0.68489   0.01267  Uiso   1.00
Fe3867 Fe    0.87500   0.37500   0.63802   0.01267  Uiso   1.00
Fe3868 Fe    0.87500   0.37500   0.68489   0.01267  Uiso   1.00
Cr3869 Cr    0.18750   0.68750   0.62630   0.01267  Uiso   1.00
Cr3870 Cr    0.18750   0.68750   0.67318   0.01267  Uiso   1.00
Cr3871 Cr    0.18750   0.93750   0.62630   0.01267  Uiso   1.00
Cr3872 Cr    0.18750   0.93750   0.67318   0.01267  Uiso   1.00
Cr3873 Cr    0.43750   0.68750   0.62630   0.01267  Uiso   1.00
Cr3874 Cr    0.43750   0.68750   0.67318   0.01267  Uiso   1.00
Cr3875 Cr    0.43750   0.93750   0.62630   0.01267  Uiso   1.00
Cr3876 Cr    0.43750   0.93750   0.67318   0.01267  Uiso   1.00
Cr3877 Cr    0.06250   0.56250   0.62630   0.01267  Uiso   1.00
Cr3878 Cr    0.06250   0.56250   0.67318   0.01267  Uiso   1.00
Cr3879 Cr    0.06250   0.81250   0.62630   0.01267  Uiso   1.00
Cr3880 Cr    0.06250   0.81250   0.67318   0.01267  Uiso   1.00
Cr3881 Cr    0.31250   0.56250   0.62630   0.01267  Uiso   1.00
Cr3882 Cr    0.31250   0.56250   0.67318   0.01267  Uiso   1.00
Cr3883 Cr    0.31250   0.81250   0.62630   0.01267  Uiso   1.00
Cr3884 Cr    0.31250   0.81250   0.67318   0.01267  Uiso   1.00
Cr3885 Cr    0.06250   0.68750   0.64974   0.01267  Uiso   1.00
Cr3886 Cr    0.06250   0.68750   0.69661   0.01267  Uiso   1.00
Cr3887 Cr    0.06250   0.93750   0.64974   0.01267  Uiso   1.00
Cr3888 Cr    0.06250   0.93750   0.69661   0.01267  Uiso   1.00
Cr3889 Cr    0.31250   0.68750   0.64974   0.01267  Uiso   1.00
Cr3890 Cr    0.31250   0.68750   0.69661   0.01267  Uiso   1.00
Cr3891 Cr    0.31250   0.93750   0.64974   0.01267  Uiso   1.00
Cr3892 Cr    0.31250   0.93750   0.69661   0.01267  Uiso   1.00
Cr3893 Cr    0.18750   0.56250   0.64974   0.01267  Uiso   1.00
Cr3894 Cr    0.18750   0.56250   0.69661   0.01267  Uiso   1.00
Cr3895 Cr    0.18750   0.81250   0.64974   0.01267  Uiso   1.00
Cr3896 Cr    0.18750   0.81250   0.69661   0.01267  Uiso   1.00
Cr3897 Cr    0.43750   0.56250   0.64974   0.01267  Uiso   1.00
Cr3898 Cr    0.43750   0.56250   0.69661   0.01267  Uiso   1.00
Cr3899 Cr    0.43750   0.81250   0.64974   0.01267  Uiso   1.00
Cr3900 Cr    0.43750   0.81250   0.69661   0.01267  Uiso   1.00
Fe3901 Fe    0.18750   0.56250   0.62630   0.01267  Uiso   1.00
Fe3902 Fe    0.18750   0.56250   0.67318   0.01267  Uiso   1.00
Fe3903 Fe    0.18750   0.81250   0.62630   0.01267  Uiso   1.00
Fe3904 Fe    0.18750   0.81250   0.67318   0.01267  Uiso   1.00
Fe3905 Fe    0.43750   0.56250   0.62630   0.01267  Uiso   1.00
Fe3906 Fe    0.43750   0.56250   0.67318   0.01267  Uiso   1.00
Fe3907 Fe    0.43750   0.81250   0.62630   0.01267  Uiso   1.00
Fe3908 Fe    0.43750   0.81250   0.67318   0.01267  Uiso   1.00
Fe3909 Fe    0.06250   0.68750   0.62630   0.01267  Uiso   1.00
Fe3910 Fe    0.06250   0.68750   0.67318   0.01267  Uiso   1.00
Fe3911 Fe    0.06250   0.93750   0.62630   0.01267  Uiso   1.00
Fe3912 Fe    0.06250   0.93750   0.67318   0.01267  Uiso   1.00
Fe3913 Fe    0.31250   0.68750   0.62630   0.01267  Uiso   1.00
Fe3914 Fe    0.31250   0.68750   0.67318   0.01267  Uiso   1.00
Fe3915 Fe    0.31250   0.93750   0.62630   0.01267  Uiso   1.00
Fe3916 Fe    0.31250   0.93750   0.67318   0.01267  Uiso   1.00
Fe3917 Fe    0.00000   0.50000   0.61459   0.01267  Uiso   1.00
Fe3918 Fe    0.00000   0.50000   0.66146   0.01267  Uiso   1.00
Fe3919 Fe    0.00000   0.75000   0.61459   0.01267  Uiso   1.00
Fe3920 Fe    0.00000   0.75000   0.66146   0.01267  Uiso   1.00
Fe3921 Fe    0.25000   0.50000   0.61459   0.01267  Uiso   1.00
Fe3922 Fe    0.25000   0.50000   0.66146   0.01267  Uiso   1.00
Fe3923 Fe    0.25000   0.75000   0.61459   0.01267  Uiso   1.00
Fe3924 Fe    0.25000   0.75000   0.66146   0.01267  Uiso   1.00
Fe3925 Fe    0.12500   0.62500   0.61459   0.01267  Uiso   1.00
Fe3926 Fe    0.12500   0.62500   0.66146   0.01267  Uiso   1.00
Fe3927 Fe    0.12500   0.87500   0.61459   0.01267  Uiso   1.00
Fe3928 Fe    0.12500   0.87500   0.66146   0.01267  Uiso   1.00
Fe3929 Fe    0.37500   0.62500   0.61459   0.01267  Uiso   1.00
Fe3930 Fe    0.37500   0.62500   0.66146   0.01267  Uiso   1.00
Fe3931 Fe    0.37500   0.87500   0.61459   0.01267  Uiso   1.00
Fe3932 Fe    0.37500   0.87500   0.66146   0.01267  Uiso   1.00
Fe3933 Fe    0.12500   0.50000   0.63802   0.01267  Uiso   1.00
Fe3934 Fe    0.12500   0.50000   0.68489   0.01267  Uiso   1.00
Fe3935 Fe    0.12500   0.75000   0.63802   0.01267  Uiso   1.00
Fe3936 Fe    0.12500   0.75000   0.68489   0.01267  Uiso   1.00
Fe3937 Fe    0.37500   0.50000   0.63802   0.01267  Uiso   1.00
Fe3938 Fe    0.37500   0.50000   0.68489   0.01267  Uiso   1.00
Fe3939 Fe    0.37500   0.75000   0.63802   0.01267  Uiso   1.00
Fe3940 Fe    0.37500   0.75000   0.68489   0.01267  Uiso   1.00
Fe3941 Fe    0.00000   0.62500   0.63802   0.01267  Uiso   1.00
Fe3942 Fe    0.00000   0.62500   0.68489   0.01267  Uiso   1.00
Fe3943 Fe    0.00000   0.87500   0.63802   0.01267  Uiso   1.00
Fe3944 Fe    0.00000   0.87500   0.68489   0.01267  Uiso   1.00
Fe3945 Fe    0.25000   0.62500   0.63802   0.01267  Uiso   1.00
Fe3946 Fe    0.25000   0.62500   0.68489   0.01267  Uiso   1.00
Fe3947 Fe    0.25000   0.87500   0.63802   0.01267  Uiso   1.00
Fe3948 Fe    0.25000   0.87500   0.68489   0.01267  Uiso   1.00
Fe3949 Fe    0.18750   0.68750   0.64974   0.01267  Uiso   1.00
Fe3950 Fe    0.18750   0.68750   0.69661   0.01267  Uiso   1.00
Fe3951 Fe    0.18750   0.93750   0.64974   0.01267  Uiso   1.00
Fe3952 Fe    0.18750   0.93750   0.69661   0.01267  Uiso   1.00
Fe3953 Fe    0.43750   0.68750   0.64974   0.01267  Uiso   1.00
Fe3954 Fe    0.43750   0.68750   0.69661   0.01267  Uiso   1.00
Fe3955 Fe    0.43750   0.93750   0.64974   0.01267  Uiso   1.00
Fe3956 Fe    0.43750   0.93750   0.69661   0.01267  Uiso   1.00
Fe3957 Fe    0.06250   0.56250   0.64974   0.01267  Uiso   1.00
Fe3958 Fe    0.06250   0.56250   0.69661   0.01267  Uiso   1.00
Fe3959 Fe    0.06250   0.81250   0.64974   0.01267  Uiso   1.00
Fe3960 Fe    0.06250   0.81250   0.69661   0.01267  Uiso   1.00
Fe3961 Fe    0.31250   0.56250   0.64974   0.01267  Uiso   1.00
Fe3962 Fe    0.31250   0.56250   0.69661   0.01267  Uiso   1.00
Fe3963 Fe    0.31250   0.81250   0.64974   0.01267  Uiso   1.00
Fe3964 Fe    0.31250   0.81250   0.69661   0.01267  Uiso   1.00
Fe3965 Fe    0.00000   0.50000   0.63802   0.01267  Uiso   1.00
Fe3966 Fe    0.00000   0.50000   0.68489   0.01267  Uiso   1.00
Fe3967 Fe    0.00000   0.75000   0.63802   0.01267  Uiso   1.00
Fe3968 Fe    0.00000   0.75000   0.68489   0.01267  Uiso   1.00
Fe3969 Fe    0.25000   0.50000   0.63802   0.01267  Uiso   1.00
Fe3970 Fe    0.25000   0.50000   0.68489   0.01267  Uiso   1.00
Fe3971 Fe    0.25000   0.75000   0.63802   0.01267  Uiso   1.00
Fe3972 Fe    0.25000   0.75000   0.68489   0.01267  Uiso   1.00
Fe3973 Fe    0.12500   0.50000   0.61459   0.01267  Uiso   1.00
Fe3974 Fe    0.12500   0.50000   0.66146   0.01267  Uiso   1.00
Fe3975 Fe    0.12500   0.75000   0.61459   0.01267  Uiso   1.00
Fe3976 Fe    0.12500   0.75000   0.66146   0.01267  Uiso   1.00
Fe3977 Fe    0.37500   0.50000   0.61459   0.01267  Uiso   1.00
Fe3978 Fe    0.37500   0.50000   0.66146   0.01267  Uiso   1.00
Fe3979 Fe    0.37500   0.75000   0.61459   0.01267  Uiso   1.00
Fe3980 Fe    0.37500   0.75000   0.66146   0.01267  Uiso   1.00
Fe3981 Fe    0.00000   0.62500   0.61459   0.01267  Uiso   1.00
Fe3982 Fe    0.00000   0.62500   0.66146   0.01267  Uiso   1.00
Fe3983 Fe    0.00000   0.87500   0.61459   0.01267  Uiso   1.00
Fe3984 Fe    0.00000   0.87500   0.66146   0.01267  Uiso   1.00
Fe3985 Fe    0.25000   0.62500   0.61459   0.01267  Uiso   1.00
Fe3986 Fe    0.25000   0.62500   0.66146   0.01267  Uiso   1.00
Fe3987 Fe    0.25000   0.87500   0.61459   0.01267  Uiso   1.00
Fe3988 Fe    0.25000   0.87500   0.66146   0.01267  Uiso   1.00
Fe3989 Fe    0.12500   0.62500   0.63802   0.01267  Uiso   1.00
Fe3990 Fe    0.12500   0.62500   0.68489   0.01267  Uiso   1.00
Fe3991 Fe    0.12500   0.87500   0.63802   0.01267  Uiso   1.00
Fe3992 Fe    0.12500   0.87500   0.68489   0.01267  Uiso   1.00
Fe3993 Fe    0.37500   0.62500   0.63802   0.01267  Uiso   1.00
Fe3994 Fe    0.37500   0.62500   0.68489   0.01267  Uiso   1.00
Fe3995 Fe    0.37500   0.87500   0.63802   0.01267  Uiso   1.00
Fe3996 Fe    0.37500   0.87500   0.68489   0.01267  Uiso   1.00
Cr3997 Cr    0.68750   0.68750   0.62630   0.01267  Uiso   1.00
Cr3998 Cr    0.68750   0.68750   0.67318   0.01267  Uiso   1.00
Cr3999 Cr    0.68750   0.93750   0.62630   0.01267  Uiso   1.00
Cr4000 Cr    0.68750   0.93750   0.67318   0.01267  Uiso   1.00
Cr4001 Cr    0.93750   0.68750   0.62630   0.01267  Uiso   1.00
Cr4002 Cr    0.93750   0.68750   0.67318   0.01267  Uiso   1.00
Cr4003 Cr    0.93750   0.93750   0.62630   0.01267  Uiso   1.00
Cr4004 Cr    0.93750   0.93750   0.67318   0.01267  Uiso   1.00
Cr4005 Cr    0.56250   0.56250   0.62630   0.01267  Uiso   1.00
Cr4006 Cr    0.56250   0.56250   0.67318   0.01267  Uiso   1.00
Cr4007 Cr    0.56250   0.81250   0.62630   0.01267  Uiso   1.00
Cr4008 Cr    0.56250   0.81250   0.67318   0.01267  Uiso   1.00
Cr4009 Cr    0.81250   0.56250   0.62630   0.01267  Uiso   1.00
Cr4010 Cr    0.81250   0.56250   0.67318   0.01267  Uiso   1.00
Cr4011 Cr    0.81250   0.81250   0.62630   0.01267  Uiso   1.00
Cr4012 Cr    0.81250   0.81250   0.67318   0.01267  Uiso   1.00
Cr4013 Cr    0.56250   0.68750   0.64974   0.01267  Uiso   1.00
Cr4014 Cr    0.56250   0.68750   0.69661   0.01267  Uiso   1.00
Cr4015 Cr    0.56250   0.93750   0.64974   0.01267  Uiso   1.00
Cr4016 Cr    0.56250   0.93750   0.69661   0.01267  Uiso   1.00
Cr4017 Cr    0.81250   0.68750   0.64974   0.01267  Uiso   1.00
Cr4018 Cr    0.81250   0.68750   0.69661   0.01267  Uiso   1.00
Cr4019 Cr    0.81250   0.93750   0.64974   0.01267  Uiso   1.00
Cr4020 Cr    0.81250   0.93750   0.69661   0.01267  Uiso   1.00
Cr4021 Cr    0.68750   0.56250   0.64974   0.01267  Uiso   1.00
Cr4022 Cr    0.68750   0.56250   0.69661   0.01267  Uiso   1.00
Cr4023 Cr    0.68750   0.81250   0.64974   0.01267  Uiso   1.00
Cr4024 Cr    0.68750   0.81250   0.69661   0.01267  Uiso   1.00
Cr4025 Cr    0.93750   0.56250   0.64974   0.01267  Uiso   1.00
Cr4026 Cr    0.93750   0.56250   0.69661   0.01267  Uiso   1.00
Cr4027 Cr    0.93750   0.81250   0.64974   0.01267  Uiso   1.00
Cr4028 Cr    0.93750   0.81250   0.69661   0.01267  Uiso   1.00
Fe4029 Fe    0.68750   0.56250   0.62630   0.01267  Uiso   1.00
Fe4030 Fe    0.68750   0.56250   0.67318   0.01267  Uiso   1.00
Fe4031 Fe    0.68750   0.81250   0.62630   0.01267  Uiso   1.00
Fe4032 Fe    0.68750   0.81250   0.67318   0.01267  Uiso   1.00
Fe4033 Fe    0.93750   0.56250   0.62630   0.01267  Uiso   1.00
Fe4034 Fe    0.93750   0.56250   0.67318   0.01267  Uiso   1.00
Fe4035 Fe    0.93750   0.81250   0.62630   0.01267  Uiso   1.00
Fe4036 Fe    0.93750   0.81250   0.67318   0.01267  Uiso   1.00
Fe4037 Fe    0.56250   0.68750   0.62630   0.01267  Uiso   1.00
Fe4038 Fe    0.56250   0.68750   0.67318   0.01267  Uiso   1.00
Fe4039 Fe    0.56250   0.93750   0.62630   0.01267  Uiso   1.00
Fe4040 Fe    0.56250   0.93750   0.67318   0.01267  Uiso   1.00
Fe4041 Fe    0.81250   0.68750   0.62630   0.01267  Uiso   1.00
Fe4042 Fe    0.81250   0.68750   0.67318   0.01267  Uiso   1.00
Fe4043 Fe    0.81250   0.93750   0.62630   0.01267  Uiso   1.00
Fe4044 Fe    0.81250   0.93750   0.67318   0.01267  Uiso   1.00
Fe4045 Fe    0.50000   0.50000   0.61459   0.01267  Uiso   1.00
Fe4046 Fe    0.50000   0.50000   0.66146   0.01267  Uiso   1.00
Fe4047 Fe    0.50000   0.75000   0.61459   0.01267  Uiso   1.00
Fe4048 Fe    0.50000   0.75000   0.66146   0.01267  Uiso   1.00
Fe4049 Fe    0.75000   0.50000   0.61459   0.01267  Uiso   1.00
Fe4050 Fe    0.75000   0.50000   0.66146   0.01267  Uiso   1.00
Fe4051 Fe    0.75000   0.75000   0.61459   0.01267  Uiso   1.00
Fe4052 Fe    0.75000   0.75000   0.66146   0.01267  Uiso   1.00
Fe4053 Fe    0.62500   0.62500   0.61459   0.01267  Uiso   1.00
Fe4054 Fe    0.62500   0.62500   0.66146   0.01267  Uiso   1.00
Fe4055 Fe    0.62500   0.87500   0.61459   0.01267  Uiso   1.00
Fe4056 Fe    0.62500   0.87500   0.66146   0.01267  Uiso   1.00
Fe4057 Fe    0.87500   0.62500   0.61459   0.01267  Uiso   1.00
Fe4058 Fe    0.87500   0.62500   0.66146   0.01267  Uiso   1.00
Fe4059 Fe    0.87500   0.87500   0.61459   0.01267  Uiso   1.00
Fe4060 Fe    0.87500   0.87500   0.66146   0.01267  Uiso   1.00
Fe4061 Fe    0.62500   0.50000   0.63802   0.01267  Uiso   1.00
Fe4062 Fe    0.62500   0.50000   0.68489   0.01267  Uiso   1.00
Fe4063 Fe    0.62500   0.75000   0.63802   0.01267  Uiso   1.00
Fe4064 Fe    0.62500   0.75000   0.68489   0.01267  Uiso   1.00
Fe4065 Fe    0.87500   0.50000   0.63802   0.01267  Uiso   1.00
Fe4066 Fe    0.87500   0.50000   0.68489   0.01267  Uiso   1.00
Fe4067 Fe    0.87500   0.75000   0.63802   0.01267  Uiso   1.00
Fe4068 Fe    0.87500   0.75000   0.68489   0.01267  Uiso   1.00
Fe4069 Fe    0.50000   0.62500   0.63802   0.01267  Uiso   1.00
Fe4070 Fe    0.50000   0.62500   0.68489   0.01267  Uiso   1.00
Fe4071 Fe    0.50000   0.87500   0.63802   0.01267  Uiso   1.00
Fe4072 Fe    0.50000   0.87500   0.68489   0.01267  Uiso   1.00
Fe4073 Fe    0.75000   0.62500   0.63802   0.01267  Uiso   1.00
Fe4074 Fe    0.75000   0.62500   0.68489   0.01267  Uiso   1.00
Fe4075 Fe    0.75000   0.87500   0.63802   0.01267  Uiso   1.00
Fe4076 Fe    0.75000   0.87500   0.68489   0.01267  Uiso   1.00
Fe4077 Fe    0.68750   0.68750   0.64974   0.01267  Uiso   1.00
Fe4078 Fe    0.68750   0.68750   0.69661   0.01267  Uiso   1.00
Fe4079 Fe    0.68750   0.93750   0.64974   0.01267  Uiso   1.00
Fe4080 Fe    0.68750   0.93750   0.69661   0.01267  Uiso   1.00
Fe4081 Fe    0.93750   0.68750   0.64974   0.01267  Uiso   1.00
Fe4082 Fe    0.93750   0.68750   0.69661   0.01267  Uiso   1.00
Fe4083 Fe    0.93750   0.93750   0.64974   0.01267  Uiso   1.00
Fe4084 Fe    0.93750   0.93750   0.69661   0.01267  Uiso   1.00
Fe4085 Fe    0.56250   0.56250   0.64974   0.01267  Uiso   1.00
Fe4086 Fe    0.56250   0.56250   0.69661   0.01267  Uiso   1.00
Fe4087 Fe    0.56250   0.81250   0.64974   0.01267  Uiso   1.00
Fe4088 Fe    0.56250   0.81250   0.69661   0.01267  Uiso   1.00
Fe4089 Fe    0.81250   0.56250   0.64974   0.01267  Uiso   1.00
Fe4090 Fe    0.81250   0.56250   0.69661   0.01267  Uiso   1.00
Fe4091 Fe    0.81250   0.81250   0.64974   0.01267  Uiso   1.00
Fe4092 Fe    0.81250   0.81250   0.69661   0.01267  Uiso   1.00
Fe4093 Fe    0.50000   0.50000   0.63802   0.01267  Uiso   1.00
Fe4094 Fe    0.50000   0.50000   0.68489   0.01267  Uiso   1.00
Fe4095 Fe    0.50000   0.75000   0.63802   0.01267  Uiso   1.00
Fe4096 Fe    0.50000   0.75000   0.68489   0.01267  Uiso   1.00
Fe4097 Fe    0.75000   0.50000   0.63802   0.01267  Uiso   1.00
Fe4098 Fe    0.75000   0.50000   0.68489   0.01267  Uiso   1.00
Fe4099 Fe    0.75000   0.75000   0.63802   0.01267  Uiso   1.00
Fe4100 Fe    0.75000   0.75000   0.68489   0.01267  Uiso   1.00
Fe4101 Fe    0.62500   0.50000   0.61459   0.01267  Uiso   1.00
Fe4102 Fe    0.62500   0.50000   0.66146   0.01267  Uiso   1.00
Fe4103 Fe    0.62500   0.75000   0.61459   0.01267  Uiso   1.00
Fe4104 Fe    0.62500   0.75000   0.66146   0.01267  Uiso   1.00
Fe4105 Fe    0.87500   0.50000   0.61459   0.01267  Uiso   1.00
Fe4106 Fe    0.87500   0.50000   0.66146   0.01267  Uiso   1.00
Fe4107 Fe    0.87500   0.75000   0.61459   0.01267  Uiso   1.00
Fe4108 Fe    0.87500   0.75000   0.66146   0.01267  Uiso   1.00
Fe4109 Fe    0.50000   0.62500   0.61459   0.01267  Uiso   1.00
Fe4110 Fe    0.50000   0.62500   0.66146   0.01267  Uiso   1.00
Fe4111 Fe    0.50000   0.87500   0.61459   0.01267  Uiso   1.00
Fe4112 Fe    0.50000   0.87500   0.66146   0.01267  Uiso   1.00
Fe4113 Fe    0.75000   0.62500   0.61459   0.01267  Uiso   1.00
Fe4114 Fe    0.75000   0.62500   0.66146   0.01267  Uiso   1.00
Fe4115 Fe    0.75000   0.87500   0.61459   0.01267  Uiso   1.00
Fe4116 Fe    0.75000   0.87500   0.66146   0.01267  Uiso   1.00
Fe4117 Fe    0.62500   0.62500   0.63802   0.01267  Uiso   1.00
Fe4118 Fe    0.62500   0.62500   0.68489   0.01267  Uiso   1.00
Fe4119 Fe    0.62500   0.87500   0.63802   0.01267  Uiso   1.00
Fe4120 Fe    0.62500   0.87500   0.68489   0.01267  Uiso   1.00
Fe4121 Fe    0.87500   0.62500   0.63802   0.01267  Uiso   1.00
Fe4122 Fe    0.87500   0.62500   0.68489   0.01267  Uiso   1.00
Fe4123 Fe    0.87500   0.87500   0.63802   0.01267  Uiso   1.00
Fe4124 Fe    0.87500   0.87500   0.68489   0.01267  Uiso   1.00
Cr4125 Cr    0.18750   0.18750   0.72005   0.01267  Uiso   1.00
Cr4126 Cr    0.18750   0.18750   0.76692   0.01267  Uiso   1.00
Cr4127 Cr    0.18750   0.43750   0.72005   0.01267  Uiso   1.00
Cr4128 Cr    0.18750   0.43750   0.76692   0.01267  Uiso   1.00
Cr4129 Cr    0.43750   0.18750   0.72005   0.01267  Uiso   1.00
Cr4130 Cr    0.43750   0.18750   0.76692   0.01267  Uiso   1.00
Cr4131 Cr    0.43750   0.43750   0.72005   0.01267  Uiso   1.00
Cr4132 Cr    0.43750   0.43750   0.76692   0.01267  Uiso   1.00
Cr4133 Cr    0.06250   0.06250   0.72005   0.01267  Uiso   1.00
Cr4134 Cr    0.06250   0.06250   0.76692   0.01267  Uiso   1.00
Cr4135 Cr    0.06250   0.31250   0.72005   0.01267  Uiso   1.00
Cr4136 Cr    0.06250   0.31250   0.76692   0.01267  Uiso   1.00
Cr4137 Cr    0.31250   0.06250   0.72005   0.01267  Uiso   1.00
Cr4138 Cr    0.31250   0.06250   0.76692   0.01267  Uiso   1.00
Cr4139 Cr    0.31250   0.31250   0.72005   0.01267  Uiso   1.00
Cr4140 Cr    0.31250   0.31250   0.76692   0.01267  Uiso   1.00
Cr4141 Cr    0.06250   0.18750   0.74349   0.01267  Uiso   1.00
Cr4142 Cr    0.06250   0.18750   0.79036   0.01267  Uiso   1.00
Cr4143 Cr    0.06250   0.43750   0.74349   0.01267  Uiso   1.00
Cr4144 Cr    0.06250   0.43750   0.79036   0.01267  Uiso   1.00
Cr4145 Cr    0.31250   0.18750   0.74349   0.01267  Uiso   1.00
Cr4146 Cr    0.31250   0.18750   0.79036   0.01267  Uiso   1.00
Cr4147 Cr    0.31250   0.43750   0.74349   0.01267  Uiso   1.00
Cr4148 Cr    0.31250   0.43750   0.79036   0.01267  Uiso   1.00
Cr4149 Cr    0.18750   0.06250   0.74349   0.01267  Uiso   1.00
Cr4150 Cr    0.18750   0.06250   0.79036   0.01267  Uiso   1.00
Cr4151 Cr    0.18750   0.31250   0.74349   0.01267  Uiso   1.00
Cr4152 Cr    0.18750   0.31250   0.79036   0.01267  Uiso   1.00
Cr4153 Cr    0.43750   0.06250   0.74349   0.01267  Uiso   1.00
Cr4154 Cr    0.43750   0.06250   0.79036   0.01267  Uiso   1.00
Cr4155 Cr    0.43750   0.31250   0.74349   0.01267  Uiso   1.00
Cr4156 Cr    0.43750   0.31250   0.79036   0.01267  Uiso   1.00
Fe4157 Fe    0.18750   0.06250   0.72005   0.01267  Uiso   1.00
Fe4158 Fe    0.18750   0.06250   0.76692   0.01267  Uiso   1.00
Fe4159 Fe    0.18750   0.31250   0.72005   0.01267  Uiso   1.00
Fe4160 Fe    0.18750   0.31250   0.76692   0.01267  Uiso   1.00
Fe4161 Fe    0.43750   0.06250   0.72005   0.01267  Uiso   1.00
Fe4162 Fe    0.43750   0.06250   0.76692   0.01267  Uiso   1.00
Fe4163 Fe    0.43750   0.31250   0.72005   0.01267  Uiso   1.00
Fe4164 Fe    0.43750   0.31250   0.76692   0.01267  Uiso   1.00
Fe4165 Fe    0.06250   0.18750   0.72005   0.01267  Uiso   1.00
Fe4166 Fe    0.06250   0.18750   0.76692   0.01267  Uiso   1.00
Fe4167 Fe    0.06250   0.43750   0.72005   0.01267  Uiso   1.00
Fe4168 Fe    0.06250   0.43750   0.76692   0.01267  Uiso   1.00
Fe4169 Fe    0.31250   0.18750   0.72005   0.01267  Uiso   1.00
Fe4170 Fe    0.31250   0.18750   0.76692   0.01267  Uiso   1.00
Fe4171 Fe    0.31250   0.43750   0.72005   0.01267  Uiso   1.00
Fe4172 Fe    0.31250   0.43750   0.76692   0.01267  Uiso   1.00
Fe4173 Fe    0.00000   0.00000   0.70833   0.01267  Uiso   1.00
Fe4174 Fe    0.00000   0.00000   0.75520   0.01267  Uiso   1.00
Fe4175 Fe    0.00000   0.25000   0.70833   0.01267  Uiso   1.00
Fe4176 Fe    0.00000   0.25000   0.75520   0.01267  Uiso   1.00
Fe4177 Fe    0.25000   0.00000   0.70833   0.01267  Uiso   1.00
Fe4178 Fe    0.25000   0.00000   0.75520   0.01267  Uiso   1.00
Fe4179 Fe    0.25000   0.25000   0.70833   0.01267  Uiso   1.00
Fe4180 Fe    0.25000   0.25000   0.75520   0.01267  Uiso   1.00
Fe4181 Fe    0.12500   0.12500   0.70833   0.01267  Uiso   1.00
Fe4182 Fe    0.12500   0.12500   0.75520   0.01267  Uiso   1.00
Fe4183 Fe    0.12500   0.37500   0.70833   0.01267  Uiso   1.00
Fe4184 Fe    0.12500   0.37500   0.75520   0.01267  Uiso   1.00
Fe4185 Fe    0.37500   0.12500   0.70833   0.01267  Uiso   1.00
Fe4186 Fe    0.37500   0.12500   0.75520   0.01267  Uiso   1.00
Fe4187 Fe    0.37500   0.37500   0.70833   0.01267  Uiso   1.00
Fe4188 Fe    0.37500   0.37500   0.75520   0.01267  Uiso   1.00
Fe4189 Fe    0.12500   0.00000   0.73177   0.01267  Uiso   1.00
Fe4190 Fe    0.12500   0.00000   0.77864   0.01267  Uiso   1.00
Fe4191 Fe    0.12500   0.25000   0.73177   0.01267  Uiso   1.00
Fe4192 Fe    0.12500   0.25000   0.77864   0.01267  Uiso   1.00
Fe4193 Fe    0.37500   0.00000   0.73177   0.01267  Uiso   1.00
Fe4194 Fe    0.37500   0.00000   0.77864   0.01267  Uiso   1.00
Fe4195 Fe    0.37500   0.25000   0.73177   0.01267  Uiso   1.00
Fe4196 Fe    0.37500   0.25000   0.77864   0.01267  Uiso   1.00
Fe4197 Fe    0.00000   0.12500   0.73177   0.01267  Uiso   1.00
Fe4198 Fe    0.00000   0.12500   0.77864   0.01267  Uiso   1.00
Fe4199 Fe    0.00000   0.37500   0.73177   0.01267  Uiso   1.00
Fe4200 Fe    0.00000   0.37500   0.77864   0.01267  Uiso   1.00
Fe4201 Fe    0.25000   0.12500   0.73177   0.01267  Uiso   1.00
Fe4202 Fe    0.25000   0.12500   0.77864   0.01267  Uiso   1.00
Fe4203 Fe    0.25000   0.37500   0.73177   0.01267  Uiso   1.00
Fe4204 Fe    0.25000   0.37500   0.77864   0.01267  Uiso   1.00
Fe4205 Fe    0.18750   0.18750   0.74349   0.01267  Uiso   1.00
Fe4206 Fe    0.18750   0.18750   0.79036   0.01267  Uiso   1.00
Fe4207 Fe    0.18750   0.43750   0.74349   0.01267  Uiso   1.00
Fe4208 Fe    0.18750   0.43750   0.79036   0.01267  Uiso   1.00
Fe4209 Fe    0.43750   0.18750   0.74349   0.01267  Uiso   1.00
Fe4210 Fe    0.43750   0.18750   0.79036   0.01267  Uiso   1.00
Fe4211 Fe    0.43750   0.43750   0.74349   0.01267  Uiso   1.00
Fe4212 Fe    0.43750   0.43750   0.79036   0.01267  Uiso   1.00
Fe4213 Fe    0.06250   0.06250   0.74349   0.01267  Uiso   1.00
Fe4214 Fe    0.06250   0.06250   0.79036   0.01267  Uiso   1.00
Fe4215 Fe    0.06250   0.31250   0.74349   0.01267  Uiso   1.00
Fe4216 Fe    0.06250   0.31250   0.79036   0.01267  Uiso   1.00
Fe4217 Fe    0.31250   0.06250   0.74349   0.01267  Uiso   1.00
Fe4218 Fe    0.31250   0.06250   0.79036   0.01267  Uiso   1.00
Fe4219 Fe    0.31250   0.31250   0.74349   0.01267  Uiso   1.00
Fe4220 Fe    0.31250   0.31250   0.79036   0.01267  Uiso   1.00
Fe4221 Fe    0.00000   0.00000   0.73177   0.01267  Uiso   1.00
Fe4222 Fe    0.00000   0.00000   0.77864   0.01267  Uiso   1.00
Fe4223 Fe    0.00000   0.25000   0.73177   0.01267  Uiso   1.00
Fe4224 Fe    0.00000   0.25000   0.77864   0.01267  Uiso   1.00
Fe4225 Fe    0.25000   0.00000   0.73177   0.01267  Uiso   1.00
Fe4226 Fe    0.25000   0.00000   0.77864   0.01267  Uiso   1.00
Fe4227 Fe    0.25000   0.25000   0.73177   0.01267  Uiso   1.00
Fe4228 Fe    0.25000   0.25000   0.77864   0.01267  Uiso   1.00
Fe4229 Fe    0.12500   0.00000   0.70833   0.01267  Uiso   1.00
Fe4230 Fe    0.12500   0.00000   0.75520   0.01267  Uiso   1.00
Fe4231 Fe    0.12500   0.25000   0.70833   0.01267  Uiso   1.00
Fe4232 Fe    0.12500   0.25000   0.75520   0.01267  Uiso   1.00
Fe4233 Fe    0.37500   0.00000   0.70833   0.01267  Uiso   1.00
Fe4234 Fe    0.37500   0.00000   0.75520   0.01267  Uiso   1.00
Fe4235 Fe    0.37500   0.25000   0.70833   0.01267  Uiso   1.00
Fe4236 Fe    0.37500   0.25000   0.75520   0.01267  Uiso   1.00
Fe4237 Fe    0.00000   0.12500   0.70833   0.01267  Uiso   1.00
Fe4238 Fe    0.00000   0.12500   0.75520   0.01267  Uiso   1.00
Fe4239 Fe    0.00000   0.37500   0.70833   0.01267  Uiso   1.00
Fe4240 Fe    0.00000   0.37500   0.75520   0.01267  Uiso   1.00
Fe4241 Fe    0.25000   0.12500   0.70833   0.01267  Uiso   1.00
Fe4242 Fe    0.25000   0.12500   0.75520   0.01267  Uiso   1.00
Fe4243 Fe    0.25000   0.37500   0.70833   0.01267  Uiso   1.00
Fe4244 Fe    0.25000   0.37500   0.75520   0.01267  Uiso   1.00
Fe4245 Fe    0.12500   0.12500   0.73177   0.01267  Uiso   1.00
Fe4246 Fe    0.12500   0.12500   0.77864   0.01267  Uiso   1.00
Fe4247 Fe    0.12500   0.37500   0.73177   0.01267  Uiso   1.00
Fe4248 Fe    0.12500   0.37500   0.77864   0.01267  Uiso   1.00
Fe4249 Fe    0.37500   0.12500   0.73177   0.01267  Uiso   1.00
Fe4250 Fe    0.37500   0.12500   0.77864   0.01267  Uiso   1.00
Fe4251 Fe    0.37500   0.37500   0.73177   0.01267  Uiso   1.00
Fe4252 Fe    0.37500   0.37500   0.77864   0.01267  Uiso   1.00
Cr4253 Cr    0.68750   0.18750   0.72005   0.01267  Uiso   1.00
Cr4254 Cr    0.68750   0.18750   0.76692   0.01267  Uiso   1.00
Cr4255 Cr    0.68750   0.43750   0.72005   0.01267  Uiso   1.00
Cr4256 Cr    0.68750   0.43750   0.76692   0.01267  Uiso   1.00
Cr4257 Cr    0.93750   0.18750   0.72005   0.01267  Uiso   1.00
Cr4258 Cr    0.93750   0.18750   0.76692   0.01267  Uiso   1.00
Cr4259 Cr    0.93750   0.43750   0.72005   0.01267  Uiso   1.00
Cr4260 Cr    0.93750   0.43750   0.76692   0.01267  Uiso   1.00
Cr4261 Cr    0.56250   0.06250   0.72005   0.01267  Uiso   1.00
Cr4262 Cr    0.56250   0.06250   0.76692   0.01267  Uiso   1.00
Cr4263 Cr    0.56250   0.31250   0.72005   0.01267  Uiso   1.00
Cr4264 Cr    0.56250   0.31250   0.76692   0.01267  Uiso   1.00
Cr4265 Cr    0.81250   0.06250   0.72005   0.01267  Uiso   1.00
Cr4266 Cr    0.81250   0.06250   0.76692   0.01267  Uiso   1.00
Cr4267 Cr    0.81250   0.31250   0.72005   0.01267  Uiso   1.00
Cr4268 Cr    0.81250   0.31250   0.76692   0.01267  Uiso   1.00
Cr4269 Cr    0.56250   0.18750   0.74349   0.01267  Uiso   1.00
Cr4270 Cr    0.56250   0.18750   0.79036   0.01267  Uiso   1.00
Cr4271 Cr    0.56250   0.43750   0.74349   0.01267  Uiso   1.00
Cr4272 Cr    0.56250   0.43750   0.79036   0.01267  Uiso   1.00
Cr4273 Cr    0.81250   0.18750   0.74349   0.01267  Uiso   1.00
Cr4274 Cr    0.81250   0.18750   0.79036   0.01267  Uiso   1.00
Cr4275 Cr    0.81250   0.43750   0.74349   0.01267  Uiso   1.00
Cr4276 Cr    0.81250   0.43750   0.79036   0.01267  Uiso   1.00
Cr4277 Cr    0.68750   0.06250   0.74349   0.01267  Uiso   1.00
Cr4278 Cr    0.68750   0.06250   0.79036   0.01267  Uiso   1.00
Cr4279 Cr    0.68750   0.31250   0.74349   0.01267  Uiso   1.00
Cr4280 Cr    0.68750   0.31250   0.79036   0.01267  Uiso   1.00
Cr4281 Cr    0.93750   0.06250   0.74349   0.01267  Uiso   1.00
Cr4282 Cr    0.93750   0.06250   0.79036   0.01267  Uiso   1.00
Cr4283 Cr    0.93750   0.31250   0.74349   0.01267  Uiso   1.00
Cr4284 Cr    0.93750   0.31250   0.79036   0.01267  Uiso   1.00
Fe4285 Fe    0.68750   0.06250   0.72005   0.01267  Uiso   1.00
Fe4286 Fe    0.68750   0.06250   0.76692   0.01267  Uiso   1.00
Fe4287 Fe    0.68750   0.31250   0.72005   0.01267  Uiso   1.00
Fe4288 Fe    0.68750   0.31250   0.76692   0.01267  Uiso   1.00
Fe4289 Fe    0.93750   0.06250   0.72005   0.01267  Uiso   1.00
Fe4290 Fe    0.93750   0.06250   0.76692   0.01267  Uiso   1.00
Fe4291 Fe    0.93750   0.31250   0.72005   0.01267  Uiso   1.00
Fe4292 Fe    0.93750   0.31250   0.76692   0.01267  Uiso   1.00
Fe4293 Fe    0.56250   0.18750   0.72005   0.01267  Uiso   1.00
Fe4294 Fe    0.56250   0.18750   0.76692   0.01267  Uiso   1.00
Fe4295 Fe    0.56250   0.43750   0.72005   0.01267  Uiso   1.00
Fe4296 Fe    0.56250   0.43750   0.76692   0.01267  Uiso   1.00
Fe4297 Fe    0.81250   0.18750   0.72005   0.01267  Uiso   1.00
Fe4298 Fe    0.81250   0.18750   0.76692   0.01267  Uiso   1.00
Fe4299 Fe    0.81250   0.43750   0.72005   0.01267  Uiso   1.00
Fe4300 Fe    0.81250   0.43750   0.76692   0.01267  Uiso   1.00
Fe4301 Fe    0.50000   0.00000   0.70833   0.01267  Uiso   1.00
Fe4302 Fe    0.50000   0.00000   0.75520   0.01267  Uiso   1.00
Fe4303 Fe    0.50000   0.25000   0.70833   0.01267  Uiso   1.00
Fe4304 Fe    0.50000   0.25000   0.75520   0.01267  Uiso   1.00
Fe4305 Fe    0.75000   0.00000   0.70833   0.01267  Uiso   1.00
Fe4306 Fe    0.75000   0.00000   0.75520   0.01267  Uiso   1.00
Fe4307 Fe    0.75000   0.25000   0.70833   0.01267  Uiso   1.00
Fe4308 Fe    0.75000   0.25000   0.75520   0.01267  Uiso   1.00
Fe4309 Fe    0.62500   0.12500   0.70833   0.01267  Uiso   1.00
Fe4310 Fe    0.62500   0.12500   0.75520   0.01267  Uiso   1.00
Fe4311 Fe    0.62500   0.37500   0.70833   0.01267  Uiso   1.00
Fe4312 Fe    0.62500   0.37500   0.75520   0.01267  Uiso   1.00
Fe4313 Fe    0.87500   0.12500   0.70833   0.01267  Uiso   1.00
Fe4314 Fe    0.87500   0.12500   0.75520   0.01267  Uiso   1.00
Fe4315 Fe    0.87500   0.37500   0.70833   0.01267  Uiso   1.00
Fe4316 Fe    0.87500   0.37500   0.75520   0.01267  Uiso   1.00
Fe4317 Fe    0.62500   0.00000   0.73177   0.01267  Uiso   1.00
Fe4318 Fe    0.62500   0.00000   0.77864   0.01267  Uiso   1.00
Fe4319 Fe    0.62500   0.25000   0.73177   0.01267  Uiso   1.00
Fe4320 Fe    0.62500   0.25000   0.77864   0.01267  Uiso   1.00
Fe4321 Fe    0.87500   0.00000   0.73177   0.01267  Uiso   1.00
Fe4322 Fe    0.87500   0.00000   0.77864   0.01267  Uiso   1.00
Fe4323 Fe    0.87500   0.25000   0.73177   0.01267  Uiso   1.00
Fe4324 Fe    0.87500   0.25000   0.77864   0.01267  Uiso   1.00
Fe4325 Fe    0.50000   0.12500   0.73177   0.01267  Uiso   1.00
Fe4326 Fe    0.50000   0.12500   0.77864   0.01267  Uiso   1.00
Fe4327 Fe    0.50000   0.37500   0.73177   0.01267  Uiso   1.00
Fe4328 Fe    0.50000   0.37500   0.77864   0.01267  Uiso   1.00
Fe4329 Fe    0.75000   0.12500   0.73177   0.01267  Uiso   1.00
Fe4330 Fe    0.75000   0.12500   0.77864   0.01267  Uiso   1.00
Fe4331 Fe    0.75000   0.37500   0.73177   0.01267  Uiso   1.00
Fe4332 Fe    0.75000   0.37500   0.77864   0.01267  Uiso   1.00
Fe4333 Fe    0.68750   0.18750   0.74349   0.01267  Uiso   1.00
Fe4334 Fe    0.68750   0.18750   0.79036   0.01267  Uiso   1.00
Fe4335 Fe    0.68750   0.43750   0.74349   0.01267  Uiso   1.00
Fe4336 Fe    0.68750   0.43750   0.79036   0.01267  Uiso   1.00
Fe4337 Fe    0.93750   0.18750   0.74349   0.01267  Uiso   1.00
Fe4338 Fe    0.93750   0.18750   0.79036   0.01267  Uiso   1.00
Fe4339 Fe    0.93750   0.43750   0.74349   0.01267  Uiso   1.00
Fe4340 Fe    0.93750   0.43750   0.79036   0.01267  Uiso   1.00
Fe4341 Fe    0.56250   0.06250   0.74349   0.01267  Uiso   1.00
Fe4342 Fe    0.56250   0.06250   0.79036   0.01267  Uiso   1.00
Fe4343 Fe    0.56250   0.31250   0.74349   0.01267  Uiso   1.00
Fe4344 Fe    0.56250   0.31250   0.79036   0.01267  Uiso   1.00
Fe4345 Fe    0.81250   0.06250   0.74349   0.01267  Uiso   1.00
Fe4346 Fe    0.81250   0.06250   0.79036   0.01267  Uiso   1.00
Fe4347 Fe    0.81250   0.31250   0.74349   0.01267  Uiso   1.00
Fe4348 Fe    0.81250   0.31250   0.79036   0.01267  Uiso   1.00
Fe4349 Fe    0.50000   0.00000   0.73177   0.01267  Uiso   1.00
Fe4350 Fe    0.50000   0.00000   0.77864   0.01267  Uiso   1.00
Fe4351 Fe    0.50000   0.25000   0.73177   0.01267  Uiso   1.00
Fe4352 Fe    0.50000   0.25000   0.77864   0.01267  Uiso   1.00
Fe4353 Fe    0.75000   0.00000   0.73177   0.01267  Uiso   1.00
Fe4354 Fe    0.75000   0.00000   0.77864   0.01267  Uiso   1.00
Fe4355 Fe    0.75000   0.25000   0.73177   0.01267  Uiso   1.00
Fe4356 Fe    0.75000   0.25000   0.77864   0.01267  Uiso   1.00
Fe4357 Fe    0.62500   0.00000   0.70833   0.01267  Uiso   1.00
Fe4358 Fe    0.62500   0.00000   0.75520   0.01267  Uiso   1.00
Fe4359 Fe    0.62500   0.25000   0.70833   0.01267  Uiso   1.00
Fe4360 Fe    0.62500   0.25000   0.75520   0.01267  Uiso   1.00
Fe4361 Fe    0.87500   0.00000   0.70833   0.01267  Uiso   1.00
Fe4362 Fe    0.87500   0.00000   0.75520   0.01267  Uiso   1.00
Fe4363 Fe    0.87500   0.25000   0.70833   0.01267  Uiso   1.00
Fe4364 Fe    0.87500   0.25000   0.75520   0.01267  Uiso   1.00
Fe4365 Fe    0.50000   0.12500   0.70833   0.01267  Uiso   1.00
Fe4366 Fe    0.50000   0.12500   0.75520   0.01267  Uiso   1.00
Fe4367 Fe    0.50000   0.37500   0.70833   0.01267  Uiso   1.00
Fe4368 Fe    0.50000   0.37500   0.75520   0.01267  Uiso   1.00
Fe4369 Fe    0.75000   0.12500   0.70833   0.01267  Uiso   1.00
Fe4370 Fe    0.75000   0.12500   0.75520   0.01267  Uiso   1.00
Fe4371 Fe    0.75000   0.37500   0.70833   0.01267  Uiso   1.00
Fe4372 Fe    0.75000   0.37500   0.75520   0.01267  Uiso   1.00
Fe4373 Fe    0.62500   0.12500   0.73177   0.01267  Uiso   1.00
Fe4374 Fe    0.62500   0.12500   0.77864   0.01267  Uiso   1.00
Fe4375 Fe    0.62500   0.37500   0.73177   0.01267  Uiso   1.00
Fe4376 Fe    0.62500   0.37500   0.77864   0.01267  Uiso   1.00
Fe4377 Fe    0.87500   0.12500   0.73177   0.01267  Uiso   1.00
Fe4378 Fe    0.87500   0.12500   0.77864   0.01267  Uiso   1.00
Fe4379 Fe    0.87500   0.37500   0.73177   0.01267  Uiso   1.00
Fe4380 Fe    0.87500   0.37500   0.77864   0.01267  Uiso   1.00
Cr4381 Cr    0.18750   0.68750   0.72005   0.01267  Uiso   1.00
Cr4382 Cr    0.18750   0.68750   0.76692   0.01267  Uiso   1.00
Cr4383 Cr    0.18750   0.93750   0.72005   0.01267  Uiso   1.00
Cr4384 Cr    0.18750   0.93750   0.76692   0.01267  Uiso   1.00
Cr4385 Cr    0.43750   0.68750   0.72005   0.01267  Uiso   1.00
Cr4386 Cr    0.43750   0.68750   0.76692   0.01267  Uiso   1.00
Cr4387 Cr    0.43750   0.93750   0.72005   0.01267  Uiso   1.00
Cr4388 Cr    0.43750   0.93750   0.76692   0.01267  Uiso   1.00
Cr4389 Cr    0.06250   0.56250   0.72005   0.01267  Uiso   1.00
Cr4390 Cr    0.06250   0.56250   0.76692   0.01267  Uiso   1.00
Cr4391 Cr    0.06250   0.81250   0.72005   0.01267  Uiso   1.00
Cr4392 Cr    0.06250   0.81250   0.76692   0.01267  Uiso   1.00
Cr4393 Cr    0.31250   0.56250   0.72005   0.01267  Uiso   1.00
Cr4394 Cr    0.31250   0.56250   0.76692   0.01267  Uiso   1.00
Cr4395 Cr    0.31250   0.81250   0.72005   0.01267  Uiso   1.00
Cr4396 Cr    0.31250   0.81250   0.76692   0.01267  Uiso   1.00
Cr4397 Cr    0.06250   0.68750   0.74349   0.01267  Uiso   1.00
Cr4398 Cr    0.06250   0.68750   0.79036   0.01267  Uiso   1.00
Cr4399 Cr    0.06250   0.93750   0.74349   0.01267  Uiso   1.00
Cr4400 Cr    0.06250   0.93750   0.79036   0.01267  Uiso   1.00
Cr4401 Cr    0.31250   0.68750   0.74349   0.01267  Uiso   1.00
Cr4402 Cr    0.31250   0.68750   0.79036   0.01267  Uiso   1.00
Cr4403 Cr    0.31250   0.93750   0.74349   0.01267  Uiso   1.00
Cr4404 Cr    0.31250   0.93750   0.79036   0.01267  Uiso   1.00
Cr4405 Cr    0.18750   0.56250   0.74349   0.01267  Uiso   1.00
Cr4406 Cr    0.18750   0.56250   0.79036   0.01267  Uiso   1.00
Cr4407 Cr    0.18750   0.81250   0.74349   0.01267  Uiso   1.00
Cr4408 Cr    0.18750   0.81250   0.79036   0.01267  Uiso   1.00
Cr4409 Cr    0.43750   0.56250   0.74349   0.01267  Uiso   1.00
Cr4410 Cr    0.43750   0.56250   0.79036   0.01267  Uiso   1.00
Cr4411 Cr    0.43750   0.81250   0.74349   0.01267  Uiso   1.00
Cr4412 Cr    0.43750   0.81250   0.79036   0.01267  Uiso   1.00
Fe4413 Fe    0.18750   0.56250   0.72005   0.01267  Uiso   1.00
Fe4414 Fe    0.18750   0.56250   0.76692   0.01267  Uiso   1.00
Fe4415 Fe    0.18750   0.81250   0.72005   0.01267  Uiso   1.00
Fe4416 Fe    0.18750   0.81250   0.76692   0.01267  Uiso   1.00
Fe4417 Fe    0.43750   0.56250   0.72005   0.01267  Uiso   1.00
Fe4418 Fe    0.43750   0.56250   0.76692   0.01267  Uiso   1.00
Fe4419 Fe    0.43750   0.81250   0.72005   0.01267  Uiso   1.00
Fe4420 Fe    0.43750   0.81250   0.76692   0.01267  Uiso   1.00
Fe4421 Fe    0.06250   0.68750   0.72005   0.01267  Uiso   1.00
Fe4422 Fe    0.06250   0.68750   0.76692   0.01267  Uiso   1.00
Fe4423 Fe    0.06250   0.93750   0.72005   0.01267  Uiso   1.00
Fe4424 Fe    0.06250   0.93750   0.76692   0.01267  Uiso   1.00
Fe4425 Fe    0.31250   0.68750   0.72005   0.01267  Uiso   1.00
Fe4426 Fe    0.31250   0.68750   0.76692   0.01267  Uiso   1.00
Fe4427 Fe    0.31250   0.93750   0.72005   0.01267  Uiso   1.00
Fe4428 Fe    0.31250   0.93750   0.76692   0.01267  Uiso   1.00
Fe4429 Fe    0.00000   0.50000   0.70833   0.01267  Uiso   1.00
Fe4430 Fe    0.00000   0.50000   0.75520   0.01267  Uiso   1.00
Fe4431 Fe    0.00000   0.75000   0.70833   0.01267  Uiso   1.00
Fe4432 Fe    0.00000   0.75000   0.75520   0.01267  Uiso   1.00
Fe4433 Fe    0.25000   0.50000   0.70833   0.01267  Uiso   1.00
Fe4434 Fe    0.25000   0.50000   0.75520   0.01267  Uiso   1.00
Fe4435 Fe    0.25000   0.75000   0.70833   0.01267  Uiso   1.00
Fe4436 Fe    0.25000   0.75000   0.75520   0.01267  Uiso   1.00
Fe4437 Fe    0.12500   0.62500   0.70833   0.01267  Uiso   1.00
Fe4438 Fe    0.12500   0.62500   0.75520   0.01267  Uiso   1.00
Fe4439 Fe    0.12500   0.87500   0.70833   0.01267  Uiso   1.00
Fe4440 Fe    0.12500   0.87500   0.75520   0.01267  Uiso   1.00
Fe4441 Fe    0.37500   0.62500   0.70833   0.01267  Uiso   1.00
Fe4442 Fe    0.37500   0.62500   0.75520   0.01267  Uiso   1.00
Fe4443 Fe    0.37500   0.87500   0.70833   0.01267  Uiso   1.00
Fe4444 Fe    0.37500   0.87500   0.75520   0.01267  Uiso   1.00
Fe4445 Fe    0.12500   0.50000   0.73177   0.01267  Uiso   1.00
Fe4446 Fe    0.12500   0.50000   0.77864   0.01267  Uiso   1.00
Fe4447 Fe    0.12500   0.75000   0.73177   0.01267  Uiso   1.00
Fe4448 Fe    0.12500   0.75000   0.77864   0.01267  Uiso   1.00
Fe4449 Fe    0.37500   0.50000   0.73177   0.01267  Uiso   1.00
Fe4450 Fe    0.37500   0.50000   0.77864   0.01267  Uiso   1.00
Fe4451 Fe    0.37500   0.75000   0.73177   0.01267  Uiso   1.00
Fe4452 Fe    0.37500   0.75000   0.77864   0.01267  Uiso   1.00
Fe4453 Fe    0.00000   0.62500   0.73177   0.01267  Uiso   1.00
Fe4454 Fe    0.00000   0.62500   0.77864   0.01267  Uiso   1.00
Fe4455 Fe    0.00000   0.87500   0.73177   0.01267  Uiso   1.00
Fe4456 Fe    0.00000   0.87500   0.77864   0.01267  Uiso   1.00
Fe4457 Fe    0.25000   0.62500   0.73177   0.01267  Uiso   1.00
Fe4458 Fe    0.25000   0.62500   0.77864   0.01267  Uiso   1.00
Fe4459 Fe    0.25000   0.87500   0.73177   0.01267  Uiso   1.00
Fe4460 Fe    0.25000   0.87500   0.77864   0.01267  Uiso   1.00
Fe4461 Fe    0.18750   0.68750   0.74349   0.01267  Uiso   1.00
Fe4462 Fe    0.18750   0.68750   0.79036   0.01267  Uiso   1.00
Fe4463 Fe    0.18750   0.93750   0.74349   0.01267  Uiso   1.00
Fe4464 Fe    0.18750   0.93750   0.79036   0.01267  Uiso   1.00
Fe4465 Fe    0.43750   0.68750   0.74349   0.01267  Uiso   1.00
Fe4466 Fe    0.43750   0.68750   0.79036   0.01267  Uiso   1.00
Fe4467 Fe    0.43750   0.93750   0.74349   0.01267  Uiso   1.00
Fe4468 Fe    0.43750   0.93750   0.79036   0.01267  Uiso   1.00
Fe4469 Fe    0.06250   0.56250   0.74349   0.01267  Uiso   1.00
Fe4470 Fe    0.06250   0.56250   0.79036   0.01267  Uiso   1.00
Fe4471 Fe    0.06250   0.81250   0.74349   0.01267  Uiso   1.00
Fe4472 Fe    0.06250   0.81250   0.79036   0.01267  Uiso   1.00
Fe4473 Fe    0.31250   0.56250   0.74349   0.01267  Uiso   1.00
Fe4474 Fe    0.31250   0.56250   0.79036   0.01267  Uiso   1.00
Fe4475 Fe    0.31250   0.81250   0.74349   0.01267  Uiso   1.00
Fe4476 Fe    0.31250   0.81250   0.79036   0.01267  Uiso   1.00
Fe4477 Fe    0.00000   0.50000   0.73177   0.01267  Uiso   1.00
Fe4478 Fe    0.00000   0.50000   0.77864   0.01267  Uiso   1.00
Fe4479 Fe    0.00000   0.75000   0.73177   0.01267  Uiso   1.00
Fe4480 Fe    0.00000   0.75000   0.77864   0.01267  Uiso   1.00
Fe4481 Fe    0.25000   0.50000   0.73177   0.01267  Uiso   1.00
Fe4482 Fe    0.25000   0.50000   0.77864   0.01267  Uiso   1.00
Fe4483 Fe    0.25000   0.75000   0.73177   0.01267  Uiso   1.00
Fe4484 Fe    0.25000   0.75000   0.77864   0.01267  Uiso   1.00
Fe4485 Fe    0.12500   0.50000   0.70833   0.01267  Uiso   1.00
Fe4486 Fe    0.12500   0.50000   0.75520   0.01267  Uiso   1.00
Fe4487 Fe    0.12500   0.75000   0.70833   0.01267  Uiso   1.00
Fe4488 Fe    0.12500   0.75000   0.75520   0.01267  Uiso   1.00
Fe4489 Fe    0.37500   0.50000   0.70833   0.01267  Uiso   1.00
Fe4490 Fe    0.37500   0.50000   0.75520   0.01267  Uiso   1.00
Fe4491 Fe    0.37500   0.75000   0.70833   0.01267  Uiso   1.00
Fe4492 Fe    0.37500   0.75000   0.75520   0.01267  Uiso   1.00
Fe4493 Fe    0.00000   0.62500   0.70833   0.01267  Uiso   1.00
Fe4494 Fe    0.00000   0.62500   0.75520   0.01267  Uiso   1.00
Fe4495 Fe    0.00000   0.87500   0.70833   0.01267  Uiso   1.00
Fe4496 Fe    0.00000   0.87500   0.75520   0.01267  Uiso   1.00
Fe4497 Fe    0.25000   0.62500   0.70833   0.01267  Uiso   1.00
Fe4498 Fe    0.25000   0.62500   0.75520   0.01267  Uiso   1.00
Fe4499 Fe    0.25000   0.87500   0.70833   0.01267  Uiso   1.00
Fe4500 Fe    0.25000   0.87500   0.75520   0.01267  Uiso   1.00
Fe4501 Fe    0.12500   0.62500   0.73177   0.01267  Uiso   1.00
Fe4502 Fe    0.12500   0.62500   0.77864   0.01267  Uiso   1.00
Fe4503 Fe    0.12500   0.87500   0.73177   0.01267  Uiso   1.00
Fe4504 Fe    0.12500   0.87500   0.77864   0.01267  Uiso   1.00
Fe4505 Fe    0.37500   0.62500   0.73177   0.01267  Uiso   1.00
Fe4506 Fe    0.37500   0.62500   0.77864   0.01267  Uiso   1.00
Fe4507 Fe    0.37500   0.87500   0.73177   0.01267  Uiso   1.00
Fe4508 Fe    0.37500   0.87500   0.77864   0.01267  Uiso   1.00
Cr4509 Cr    0.68750   0.68750   0.72005   0.01267  Uiso   1.00
Cr4510 Cr    0.68750   0.68750   0.76692   0.01267  Uiso   1.00
Cr4511 Cr    0.68750   0.93750   0.72005   0.01267  Uiso   1.00
Cr4512 Cr    0.68750   0.93750   0.76692   0.01267  Uiso   1.00
Cr4513 Cr    0.93750   0.68750   0.72005   0.01267  Uiso   1.00
Cr4514 Cr    0.93750   0.68750   0.76692   0.01267  Uiso   1.00
Cr4515 Cr    0.93750   0.93750   0.72005   0.01267  Uiso   1.00
Cr4516 Cr    0.93750   0.93750   0.76692   0.01267  Uiso   1.00
Cr4517 Cr    0.56250   0.56250   0.72005   0.01267  Uiso   1.00
Cr4518 Cr    0.56250   0.56250   0.76692   0.01267  Uiso   1.00
Cr4519 Cr    0.56250   0.81250   0.72005   0.01267  Uiso   1.00
Cr4520 Cr    0.56250   0.81250   0.76692   0.01267  Uiso   1.00
Cr4521 Cr    0.81250   0.56250   0.72005   0.01267  Uiso   1.00
Cr4522 Cr    0.81250   0.56250   0.76692   0.01267  Uiso   1.00
Cr4523 Cr    0.81250   0.81250   0.72005   0.01267  Uiso   1.00
Cr4524 Cr    0.81250   0.81250   0.76692   0.01267  Uiso   1.00
Cr4525 Cr    0.56250   0.68750   0.74349   0.01267  Uiso   1.00
Cr4526 Cr    0.56250   0.68750   0.79036   0.01267  Uiso   1.00
Cr4527 Cr    0.56250   0.93750   0.74349   0.01267  Uiso   1.00
Cr4528 Cr    0.56250   0.93750   0.79036   0.01267  Uiso   1.00
Cr4529 Cr    0.81250   0.68750   0.74349   0.01267  Uiso   1.00
Cr4530 Cr    0.81250   0.68750   0.79036   0.01267  Uiso   1.00
Cr4531 Cr    0.81250   0.93750   0.74349   0.01267  Uiso   1.00
Cr4532 Cr    0.81250   0.93750   0.79036   0.01267  Uiso   1.00
Cr4533 Cr    0.68750   0.56250   0.74349   0.01267  Uiso   1.00
Cr4534 Cr    0.68750   0.56250   0.79036   0.01267  Uiso   1.00
Cr4535 Cr    0.68750   0.81250   0.74349   0.01267  Uiso   1.00
Cr4536 Cr    0.68750   0.81250   0.79036   0.01267  Uiso   1.00
Cr4537 Cr    0.93750   0.56250   0.74349   0.01267  Uiso   1.00
Cr4538 Cr    0.93750   0.56250   0.79036   0.01267  Uiso   1.00
Cr4539 Cr    0.93750   0.81250   0.74349   0.01267  Uiso   1.00
Cr4540 Cr    0.93750   0.81250   0.79036   0.01267  Uiso   1.00
Fe4541 Fe    0.68750   0.56250   0.72005   0.01267  Uiso   1.00
Fe4542 Fe    0.68750   0.56250   0.76692   0.01267  Uiso   1.00
Fe4543 Fe    0.68750   0.81250   0.72005   0.01267  Uiso   1.00
Fe4544 Fe    0.68750   0.81250   0.76692   0.01267  Uiso   1.00
Fe4545 Fe    0.93750   0.56250   0.72005   0.01267  Uiso   1.00
Fe4546 Fe    0.93750   0.56250   0.76692   0.01267  Uiso   1.00
Fe4547 Fe    0.93750   0.81250   0.72005   0.01267  Uiso   1.00
Fe4548 Fe    0.93750   0.81250   0.76692   0.01267  Uiso   1.00
Fe4549 Fe    0.56250   0.68750   0.72005   0.01267  Uiso   1.00
Fe4550 Fe    0.56250   0.68750   0.76692   0.01267  Uiso   1.00
Fe4551 Fe    0.56250   0.93750   0.72005   0.01267  Uiso   1.00
Fe4552 Fe    0.56250   0.93750   0.76692   0.01267  Uiso   1.00
Fe4553 Fe    0.81250   0.68750   0.72005   0.01267  Uiso   1.00
Fe4554 Fe    0.81250   0.68750   0.76692   0.01267  Uiso   1.00
Fe4555 Fe    0.81250   0.93750   0.72005   0.01267  Uiso   1.00
Fe4556 Fe    0.81250   0.93750   0.76692   0.01267  Uiso   1.00
Fe4557 Fe    0.50000   0.50000   0.70833   0.01267  Uiso   1.00
Fe4558 Fe    0.50000   0.50000   0.75520   0.01267  Uiso   1.00
Fe4559 Fe    0.50000   0.75000   0.70833   0.01267  Uiso   1.00
Fe4560 Fe    0.50000   0.75000   0.75520   0.01267  Uiso   1.00
Fe4561 Fe    0.75000   0.50000   0.70833   0.01267  Uiso   1.00
Fe4562 Fe    0.75000   0.50000   0.75520   0.01267  Uiso   1.00
Fe4563 Fe    0.75000   0.75000   0.70833   0.01267  Uiso   1.00
Fe4564 Fe    0.75000   0.75000   0.75520   0.01267  Uiso   1.00
Fe4565 Fe    0.62500   0.62500   0.70833   0.01267  Uiso   1.00
Fe4566 Fe    0.62500   0.62500   0.75520   0.01267  Uiso   1.00
Fe4567 Fe    0.62500   0.87500   0.70833   0.01267  Uiso   1.00
Fe4568 Fe    0.62500   0.87500   0.75520   0.01267  Uiso   1.00
Fe4569 Fe    0.87500   0.62500   0.70833   0.01267  Uiso   1.00
Fe4570 Fe    0.87500   0.62500   0.75520   0.01267  Uiso   1.00
Fe4571 Fe    0.87500   0.87500   0.70833   0.01267  Uiso   1.00
Fe4572 Fe    0.87500   0.87500   0.75520   0.01267  Uiso   1.00
Fe4573 Fe    0.62500   0.50000   0.73177   0.01267  Uiso   1.00
Fe4574 Fe    0.62500   0.50000   0.77864   0.01267  Uiso   1.00
Fe4575 Fe    0.62500   0.75000   0.73177   0.01267  Uiso   1.00
Fe4576 Fe    0.62500   0.75000   0.77864   0.01267  Uiso   1.00
Fe4577 Fe    0.87500   0.50000   0.73177   0.01267  Uiso   1.00
Fe4578 Fe    0.87500   0.50000   0.77864   0.01267  Uiso   1.00
Fe4579 Fe    0.87500   0.75000   0.73177   0.01267  Uiso   1.00
Fe4580 Fe    0.87500   0.75000   0.77864   0.01267  Uiso   1.00
Fe4581 Fe    0.50000   0.62500   0.73177   0.01267  Uiso   1.00
Fe4582 Fe    0.50000   0.62500   0.77864   0.01267  Uiso   1.00
Fe4583 Fe    0.50000   0.87500   0.73177   0.01267  Uiso   1.00
Fe4584 Fe    0.50000   0.87500   0.77864   0.01267  Uiso   1.00
Fe4585 Fe    0.75000   0.62500   0.73177   0.01267  Uiso   1.00
Fe4586 Fe    0.75000   0.62500   0.77864   0.01267  Uiso   1.00
Fe4587 Fe    0.75000   0.87500   0.73177   0.01267  Uiso   1.00
Fe4588 Fe    0.75000   0.87500   0.77864   0.01267  Uiso   1.00
Fe4589 Fe    0.68750   0.68750   0.74349   0.01267  Uiso   1.00
Fe4590 Fe    0.68750   0.68750   0.79036   0.01267  Uiso   1.00
Fe4591 Fe    0.68750   0.93750   0.74349   0.01267  Uiso   1.00
Fe4592 Fe    0.68750   0.93750   0.79036   0.01267  Uiso   1.00
Fe4593 Fe    0.93750   0.68750   0.74349   0.01267  Uiso   1.00
Fe4594 Fe    0.93750   0.68750   0.79036   0.01267  Uiso   1.00
Fe4595 Fe    0.93750   0.93750   0.74349   0.01267  Uiso   1.00
Fe4596 Fe    0.93750   0.93750   0.79036   0.01267  Uiso   1.00
Fe4597 Fe    0.56250   0.56250   0.74349   0.01267  Uiso   1.00
Fe4598 Fe    0.56250   0.56250   0.79036   0.01267  Uiso   1.00
Fe4599 Fe    0.56250   0.81250   0.74349   0.01267  Uiso   1.00
Fe4600 Fe    0.56250   0.81250   0.79036   0.01267  Uiso   1.00
Fe4601 Fe    0.81250   0.56250   0.74349   0.01267  Uiso   1.00
Fe4602 Fe    0.81250   0.56250   0.79036   0.01267  Uiso   1.00
Fe4603 Fe    0.81250   0.81250   0.74349   0.01267  Uiso   1.00
Fe4604 Fe    0.81250   0.81250   0.79036   0.01267  Uiso   1.00
Fe4605 Fe    0.50000   0.50000   0.73177   0.01267  Uiso   1.00
Fe4606 Fe    0.50000   0.50000   0.77864   0.01267  Uiso   1.00
Fe4607 Fe    0.50000   0.75000   0.73177   0.01267  Uiso   1.00
Fe4608 Fe    0.50000   0.75000   0.77864   0.01267  Uiso   1.00
Fe4609 Fe    0.75000   0.50000   0.73177   0.01267  Uiso   1.00
Fe4610 Fe    0.75000   0.50000   0.77864   0.01267  Uiso   1.00
Fe4611 Fe    0.75000   0.75000   0.73177   0.01267  Uiso   1.00
Fe4612 Fe    0.75000   0.75000   0.77864   0.01267  Uiso   1.00
Fe4613 Fe    0.62500   0.50000   0.70833   0.01267  Uiso   1.00
Fe4614 Fe    0.62500   0.50000   0.75520   0.01267  Uiso   1.00
Fe4615 Fe    0.62500   0.75000   0.70833   0.01267  Uiso   1.00
Fe4616 Fe    0.62500   0.75000   0.75520   0.01267  Uiso   1.00
Fe4617 Fe    0.87500   0.50000   0.70833   0.01267  Uiso   1.00
Fe4618 Fe    0.87500   0.50000   0.75520   0.01267  Uiso   1.00
Fe4619 Fe    0.87500   0.75000   0.70833   0.01267  Uiso   1.00
Fe4620 Fe    0.87500   0.75000   0.75520   0.01267  Uiso   1.00
Fe4621 Fe    0.50000   0.62500   0.70833   0.01267  Uiso   1.00
Fe4622 Fe    0.50000   0.62500   0.75520   0.01267  Uiso   1.00
Fe4623 Fe    0.50000   0.87500   0.70833   0.01267  Uiso   1.00
Fe4624 Fe    0.50000   0.87500   0.75520   0.01267  Uiso   1.00
Fe4625 Fe    0.75000   0.62500   0.70833   0.01267  Uiso   1.00
Fe4626 Fe    0.75000   0.62500   0.75520   0.01267  Uiso   1.00
Fe4627 Fe    0.75000   0.87500   0.70833   0.01267  Uiso   1.00
Fe4628 Fe    0.75000   0.87500   0.75520   0.01267  Uiso   1.00
Fe4629 Fe    0.62500   0.62500   0.73177   0.01267  Uiso   1.00
Fe4630 Fe    0.62500   0.62500   0.77864   0.01267  Uiso   1.00
Fe4631 Fe    0.62500   0.87500   0.73177   0.01267  Uiso   1.00
Fe4632 Fe    0.62500   0.87500   0.77864   0.01267  Uiso   1.00
Fe4633 Fe    0.87500   0.62500   0.73177   0.01267  Uiso   1.00
Fe4634 Fe    0.87500   0.62500   0.77864   0.01267  Uiso   1.00
Fe4635 Fe    0.87500   0.87500   0.73177   0.01267  Uiso   1.00
Fe4636 Fe    0.87500   0.87500   0.77864   0.01267  Uiso   1.00
Cr4637 Cr    0.18750   0.18750   0.81379   0.01267  Uiso   1.00
Cr4638 Cr    0.18750   0.18750   0.86067   0.01267  Uiso   1.00
Cr4639 Cr    0.18750   0.43750   0.81379   0.01267  Uiso   1.00
Cr4640 Cr    0.18750   0.43750   0.86067   0.01267  Uiso   1.00
Cr4641 Cr    0.43750   0.18750   0.81379   0.01267  Uiso   1.00
Cr4642 Cr    0.43750   0.18750   0.86067   0.01267  Uiso   1.00
Cr4643 Cr    0.43750   0.43750   0.81379   0.01267  Uiso   1.00
Cr4644 Cr    0.43750   0.43750   0.86067   0.01267  Uiso   1.00
Cr4645 Cr    0.06250   0.06250   0.81379   0.01267  Uiso   1.00
Cr4646 Cr    0.06250   0.06250   0.86067   0.01267  Uiso   1.00
Cr4647 Cr    0.06250   0.31250   0.81379   0.01267  Uiso   1.00
Cr4648 Cr    0.06250   0.31250   0.86067   0.01267  Uiso   1.00
Cr4649 Cr    0.31250   0.06250   0.81379   0.01267  Uiso   1.00
Cr4650 Cr    0.31250   0.06250   0.86067   0.01267  Uiso   1.00
Cr4651 Cr    0.31250   0.31250   0.81379   0.01267  Uiso   1.00
Cr4652 Cr    0.31250   0.31250   0.86067   0.01267  Uiso   1.00
Cr4653 Cr    0.06250   0.18750   0.83723   0.01267  Uiso   1.00
Cr4654 Cr    0.06250   0.18750   0.88410   0.01267  Uiso   1.00
Cr4655 Cr    0.06250   0.43750   0.83723   0.01267  Uiso   1.00
Cr4656 Cr    0.06250   0.43750   0.88410   0.01267  Uiso   1.00
Cr4657 Cr    0.31250   0.18750   0.83723   0.01267  Uiso   1.00
Cr4658 Cr    0.31250   0.18750   0.88410   0.01267  Uiso   1.00
Cr4659 Cr    0.31250   0.43750   0.83723   0.01267  Uiso   1.00
Cr4660 Cr    0.31250   0.43750   0.88410   0.01267  Uiso   1.00
Cr4661 Cr    0.18750   0.06250   0.83723   0.01267  Uiso   1.00
Cr4662 Cr    0.18750   0.06250   0.88410   0.01267  Uiso   1.00
Cr4663 Cr    0.18750   0.31250   0.83723   0.01267  Uiso   1.00
Cr4664 Cr    0.18750   0.31250   0.88410   0.01267  Uiso   1.00
Cr4665 Cr    0.43750   0.06250   0.83723   0.01267  Uiso   1.00
Cr4666 Cr    0.43750   0.06250   0.88410   0.01267  Uiso   1.00
Cr4667 Cr    0.43750   0.31250   0.83723   0.01267  Uiso   1.00
Cr4668 Cr    0.43750   0.31250   0.88410   0.01267  Uiso   1.00
Fe4669 Fe    0.18750   0.06250   0.81379   0.01267  Uiso   1.00
Fe4670 Fe    0.18750   0.06250   0.86067   0.01267  Uiso   1.00
Fe4671 Fe    0.18750   0.31250   0.81379   0.01267  Uiso   1.00
Fe4672 Fe    0.18750   0.31250   0.86067   0.01267  Uiso   1.00
Fe4673 Fe    0.43750   0.06250   0.81379   0.01267  Uiso   1.00
Fe4674 Fe    0.43750   0.06250   0.86067   0.01267  Uiso   1.00
Fe4675 Fe    0.43750   0.31250   0.81379   0.01267  Uiso   1.00
Fe4676 Fe    0.43750   0.31250   0.86067   0.01267  Uiso   1.00
Fe4677 Fe    0.06250   0.18750   0.81379   0.01267  Uiso   1.00
Fe4678 Fe    0.06250   0.18750   0.86067   0.01267  Uiso   1.00
Fe4679 Fe    0.06250   0.43750   0.81379   0.01267  Uiso   1.00
Fe4680 Fe    0.06250   0.43750   0.86067   0.01267  Uiso   1.00
Fe4681 Fe    0.31250   0.18750   0.81379   0.01267  Uiso   1.00
Fe4682 Fe    0.31250   0.18750   0.86067   0.01267  Uiso   1.00
Fe4683 Fe    0.31250   0.43750   0.81379   0.01267  Uiso   1.00
Fe4684 Fe    0.31250   0.43750   0.86067   0.01267  Uiso   1.00
Fe4685 Fe    0.00000   0.00000   0.80208   0.01267  Uiso   1.00
Fe4686 Fe    0.00000   0.00000   0.84895   0.01267  Uiso   1.00
Fe4687 Fe    0.00000   0.25000   0.80208   0.01267  Uiso   1.00
Fe4688 Fe    0.00000   0.25000   0.84895   0.01267  Uiso   1.00
Fe4689 Fe    0.25000   0.00000   0.80208   0.01267  Uiso   1.00
Fe4690 Fe    0.25000   0.00000   0.84895   0.01267  Uiso   1.00
Fe4691 Fe    0.25000   0.25000   0.80208   0.01267  Uiso   1.00
Fe4692 Fe    0.25000   0.25000   0.84895   0.01267  Uiso   1.00
Fe4693 Fe    0.12500   0.12500   0.80208   0.01267  Uiso   1.00
Fe4694 Fe    0.12500   0.12500   0.84895   0.01267  Uiso   1.00
Fe4695 Fe    0.12500   0.37500   0.80208   0.01267  Uiso   1.00
Fe4696 Fe    0.12500   0.37500   0.84895   0.01267  Uiso   1.00
Fe4697 Fe    0.37500   0.12500   0.80208   0.01267  Uiso   1.00
Fe4698 Fe    0.37500   0.12500   0.84895   0.01267  Uiso   1.00
Fe4699 Fe    0.37500   0.37500   0.80208   0.01267  Uiso   1.00
Fe4700 Fe    0.37500   0.37500   0.84895   0.01267  Uiso   1.00
Fe4701 Fe    0.12500   0.00000   0.82551   0.01267  Uiso   1.00
Fe4702 Fe    0.12500   0.00000   0.87239   0.01267  Uiso   1.00
Fe4703 Fe    0.12500   0.25000   0.82551   0.01267  Uiso   1.00
Fe4704 Fe    0.12500   0.25000   0.87239   0.01267  Uiso   1.00
Fe4705 Fe    0.37500   0.00000   0.82551   0.01267  Uiso   1.00
Fe4706 Fe    0.37500   0.00000   0.87239   0.01267  Uiso   1.00
Fe4707 Fe    0.37500   0.25000   0.82551   0.01267  Uiso   1.00
Fe4708 Fe    0.37500   0.25000   0.87239   0.01267  Uiso   1.00
Fe4709 Fe    0.00000   0.12500   0.82551   0.01267  Uiso   1.00
Fe4710 Fe    0.00000   0.12500   0.87239   0.01267  Uiso   1.00
Fe4711 Fe    0.00000   0.37500   0.82551   0.01267  Uiso   1.00
Fe4712 Fe    0.00000   0.37500   0.87239   0.01267  Uiso   1.00
Fe4713 Fe    0.25000   0.12500   0.82551   0.01267  Uiso   1.00
Fe4714 Fe    0.25000   0.12500   0.87239   0.01267  Uiso   1.00
Fe4715 Fe    0.25000   0.37500   0.82551   0.01267  Uiso   1.00
Fe4716 Fe    0.25000   0.37500   0.87239   0.01267  Uiso   1.00
Fe4717 Fe    0.18750   0.18750   0.83723   0.01267  Uiso   1.00
Fe4718 Fe    0.18750   0.18750   0.88410   0.01267  Uiso   1.00
Fe4719 Fe    0.18750   0.43750   0.83723   0.01267  Uiso   1.00
Fe4720 Fe    0.18750   0.43750   0.88410   0.01267  Uiso   1.00
Fe4721 Fe    0.43750   0.18750   0.83723   0.01267  Uiso   1.00
Fe4722 Fe    0.43750   0.18750   0.88410   0.01267  Uiso   1.00
Fe4723 Fe    0.43750   0.43750   0.83723   0.01267  Uiso   1.00
Fe4724 Fe    0.43750   0.43750   0.88410   0.01267  Uiso   1.00
Fe4725 Fe    0.06250   0.06250   0.83723   0.01267  Uiso   1.00
Fe4726 Fe    0.06250   0.06250   0.88410   0.01267  Uiso   1.00
Fe4727 Fe    0.06250   0.31250   0.83723   0.01267  Uiso   1.00
Fe4728 Fe    0.06250   0.31250   0.88410   0.01267  Uiso   1.00
Fe4729 Fe    0.31250   0.06250   0.83723   0.01267  Uiso   1.00
Fe4730 Fe    0.31250   0.06250   0.88410   0.01267  Uiso   1.00
Fe4731 Fe    0.31250   0.31250   0.83723   0.01267  Uiso   1.00
Fe4732 Fe    0.31250   0.31250   0.88410   0.01267  Uiso   1.00
Fe4733 Fe    0.00000   0.00000   0.82551   0.01267  Uiso   1.00
Fe4734 Fe    0.00000   0.00000   0.87239   0.01267  Uiso   1.00
Fe4735 Fe    0.00000   0.25000   0.82551   0.01267  Uiso   1.00
Fe4736 Fe    0.00000   0.25000   0.87239   0.01267  Uiso   1.00
Fe4737 Fe    0.25000   0.00000   0.82551   0.01267  Uiso   1.00
Fe4738 Fe    0.25000   0.00000   0.87239   0.01267  Uiso   1.00
Fe4739 Fe    0.25000   0.25000   0.82551   0.01267  Uiso   1.00
Fe4740 Fe    0.25000   0.25000   0.87239   0.01267  Uiso   1.00
Fe4741 Fe    0.12500   0.00000   0.80208   0.01267  Uiso   1.00
Fe4742 Fe    0.12500   0.00000   0.84895   0.01267  Uiso   1.00
Fe4743 Fe    0.12500   0.25000   0.80208   0.01267  Uiso   1.00
Fe4744 Fe    0.12500   0.25000   0.84895   0.01267  Uiso   1.00
Fe4745 Fe    0.37500   0.00000   0.80208   0.01267  Uiso   1.00
Fe4746 Fe    0.37500   0.00000   0.84895   0.01267  Uiso   1.00
Fe4747 Fe    0.37500   0.25000   0.80208   0.01267  Uiso   1.00
Fe4748 Fe    0.37500   0.25000   0.84895   0.01267  Uiso   1.00
Fe4749 Fe    0.00000   0.12500   0.80208   0.01267  Uiso   1.00
Fe4750 Fe    0.00000   0.12500   0.84895   0.01267  Uiso   1.00
Fe4751 Fe    0.00000   0.37500   0.80208   0.01267  Uiso   1.00
Fe4752 Fe    0.00000   0.37500   0.84895   0.01267  Uiso   1.00
Fe4753 Fe    0.25000   0.12500   0.80208   0.01267  Uiso   1.00
Fe4754 Fe    0.25000   0.12500   0.84895   0.01267  Uiso   1.00
Fe4755 Fe    0.25000   0.37500   0.80208   0.01267  Uiso   1.00
Fe4756 Fe    0.25000   0.37500   0.84895   0.01267  Uiso   1.00
Fe4757 Fe    0.12500   0.12500   0.82551   0.01267  Uiso   1.00
Fe4758 Fe    0.12500   0.12500   0.87239   0.01267  Uiso   1.00
Fe4759 Fe    0.12500   0.37500   0.82551   0.01267  Uiso   1.00
Fe4760 Fe    0.12500   0.37500   0.87239   0.01267  Uiso   1.00
Fe4761 Fe    0.37500   0.12500   0.82551   0.01267  Uiso   1.00
Fe4762 Fe    0.37500   0.12500   0.87239   0.01267  Uiso   1.00
Fe4763 Fe    0.37500   0.37500   0.82551   0.01267  Uiso   1.00
Fe4764 Fe    0.37500   0.37500   0.87239   0.01267  Uiso   1.00
Cr4765 Cr    0.68750   0.18750   0.81379   0.01267  Uiso   1.00
Cr4766 Cr    0.68750   0.18750   0.86067   0.01267  Uiso   1.00
Cr4767 Cr    0.68750   0.43750   0.81379   0.01267  Uiso   1.00
Cr4768 Cr    0.68750   0.43750   0.86067   0.01267  Uiso   1.00
Cr4769 Cr    0.93750   0.18750   0.81379   0.01267  Uiso   1.00
Cr4770 Cr    0.93750   0.18750   0.86067   0.01267  Uiso   1.00
Cr4771 Cr    0.93750   0.43750   0.81379   0.01267  Uiso   1.00
Cr4772 Cr    0.93750   0.43750   0.86067   0.01267  Uiso   1.00
Cr4773 Cr    0.56250   0.06250   0.81379   0.01267  Uiso   1.00
Cr4774 Cr    0.56250   0.06250   0.86067   0.01267  Uiso   1.00
Cr4775 Cr    0.56250   0.31250   0.81379   0.01267  Uiso   1.00
Cr4776 Cr    0.56250   0.31250   0.86067   0.01267  Uiso   1.00
Cr4777 Cr    0.81250   0.06250   0.81379   0.01267  Uiso   1.00
Cr4778 Cr    0.81250   0.06250   0.86067   0.01267  Uiso   1.00
Cr4779 Cr    0.81250   0.31250   0.81379   0.01267  Uiso   1.00
Cr4780 Cr    0.81250   0.31250   0.86067   0.01267  Uiso   1.00
Cr4781 Cr    0.56250   0.18750   0.83723   0.01267  Uiso   1.00
Cr4782 Cr    0.56250   0.18750   0.88410   0.01267  Uiso   1.00
Cr4783 Cr    0.56250   0.43750   0.83723   0.01267  Uiso   1.00
Cr4784 Cr    0.56250   0.43750   0.88410   0.01267  Uiso   1.00
Cr4785 Cr    0.81250   0.18750   0.83723   0.01267  Uiso   1.00
Cr4786 Cr    0.81250   0.18750   0.88410   0.01267  Uiso   1.00
Cr4787 Cr    0.81250   0.43750   0.83723   0.01267  Uiso   1.00
Cr4788 Cr    0.81250   0.43750   0.88410   0.01267  Uiso   1.00
Cr4789 Cr    0.68750   0.06250   0.83723   0.01267  Uiso   1.00
Cr4790 Cr    0.68750   0.06250   0.88410   0.01267  Uiso   1.00
Cr4791 Cr    0.68750   0.31250   0.83723   0.01267  Uiso   1.00
Cr4792 Cr    0.68750   0.31250   0.88410   0.01267  Uiso   1.00
Cr4793 Cr    0.93750   0.06250   0.83723   0.01267  Uiso   1.00
Cr4794 Cr    0.93750   0.06250   0.88410   0.01267  Uiso   1.00
Cr4795 Cr    0.93750   0.31250   0.83723   0.01267  Uiso   1.00
Cr4796 Cr    0.93750   0.31250   0.88410   0.01267  Uiso   1.00
Fe4797 Fe    0.68750   0.06250   0.81379   0.01267  Uiso   1.00
Fe4798 Fe    0.68750   0.06250   0.86067   0.01267  Uiso   1.00
Fe4799 Fe    0.68750   0.31250   0.81379   0.01267  Uiso   1.00
Fe4800 Fe    0.68750   0.31250   0.86067   0.01267  Uiso   1.00
Fe4801 Fe    0.93750   0.06250   0.81379   0.01267  Uiso   1.00
Fe4802 Fe    0.93750   0.06250   0.86067   0.01267  Uiso   1.00
Fe4803 Fe    0.93750   0.31250   0.81379   0.01267  Uiso   1.00
Fe4804 Fe    0.93750   0.31250   0.86067   0.01267  Uiso   1.00
Fe4805 Fe    0.56250   0.18750   0.81379   0.01267  Uiso   1.00
Fe4806 Fe    0.56250   0.18750   0.86067   0.01267  Uiso   1.00
Fe4807 Fe    0.56250   0.43750   0.81379   0.01267  Uiso   1.00
Fe4808 Fe    0.56250   0.43750   0.86067   0.01267  Uiso   1.00
Fe4809 Fe    0.81250   0.18750   0.81379   0.01267  Uiso   1.00
Fe4810 Fe    0.81250   0.18750   0.86067   0.01267  Uiso   1.00
Fe4811 Fe    0.81250   0.43750   0.81379   0.01267  Uiso   1.00
Fe4812 Fe    0.81250   0.43750   0.86067   0.01267  Uiso   1.00
Fe4813 Fe    0.50000   0.00000   0.80208   0.01267  Uiso   1.00
Fe4814 Fe    0.50000   0.00000   0.84895   0.01267  Uiso   1.00
Fe4815 Fe    0.50000   0.25000   0.80208   0.01267  Uiso   1.00
Fe4816 Fe    0.50000   0.25000   0.84895   0.01267  Uiso   1.00
Fe4817 Fe    0.75000   0.00000   0.80208   0.01267  Uiso   1.00
Fe4818 Fe    0.75000   0.00000   0.84895   0.01267  Uiso   1.00
Fe4819 Fe    0.75000   0.25000   0.80208   0.01267  Uiso   1.00
Fe4820 Fe    0.75000   0.25000   0.84895   0.01267  Uiso   1.00
Fe4821 Fe    0.62500   0.12500   0.80208   0.01267  Uiso   1.00
Fe4822 Fe    0.62500   0.12500   0.84895   0.01267  Uiso   1.00
Fe4823 Fe    0.62500   0.37500   0.80208   0.01267  Uiso   1.00
Fe4824 Fe    0.62500   0.37500   0.84895   0.01267  Uiso   1.00
Fe4825 Fe    0.87500   0.12500   0.80208   0.01267  Uiso   1.00
Fe4826 Fe    0.87500   0.12500   0.84895   0.01267  Uiso   1.00
Fe4827 Fe    0.87500   0.37500   0.80208   0.01267  Uiso   1.00
Fe4828 Fe    0.87500   0.37500   0.84895   0.01267  Uiso   1.00
Fe4829 Fe    0.62500   0.00000   0.82551   0.01267  Uiso   1.00
Fe4830 Fe    0.62500   0.00000   0.87239   0.01267  Uiso   1.00
Fe4831 Fe    0.62500   0.25000   0.82551   0.01267  Uiso   1.00
Fe4832 Fe    0.62500   0.25000   0.87239   0.01267  Uiso   1.00
Fe4833 Fe    0.87500   0.00000   0.82551   0.01267  Uiso   1.00
Fe4834 Fe    0.87500   0.00000   0.87239   0.01267  Uiso   1.00
Fe4835 Fe    0.87500   0.25000   0.82551   0.01267  Uiso   1.00
Fe4836 Fe    0.87500   0.25000   0.87239   0.01267  Uiso   1.00
Fe4837 Fe    0.50000   0.12500   0.82551   0.01267  Uiso   1.00
Fe4838 Fe    0.50000   0.12500   0.87239   0.01267  Uiso   1.00
Fe4839 Fe    0.50000   0.37500   0.82551   0.01267  Uiso   1.00
Fe4840 Fe    0.50000   0.37500   0.87239   0.01267  Uiso   1.00
Fe4841 Fe    0.75000   0.12500   0.82551   0.01267  Uiso   1.00
Fe4842 Fe    0.75000   0.12500   0.87239   0.01267  Uiso   1.00
Fe4843 Fe    0.75000   0.37500   0.82551   0.01267  Uiso   1.00
Fe4844 Fe    0.75000   0.37500   0.87239   0.01267  Uiso   1.00
Fe4845 Fe    0.68750   0.18750   0.83723   0.01267  Uiso   1.00
Fe4846 Fe    0.68750   0.18750   0.88410   0.01267  Uiso   1.00
Fe4847 Fe    0.68750   0.43750   0.83723   0.01267  Uiso   1.00
Fe4848 Fe    0.68750   0.43750   0.88410   0.01267  Uiso   1.00
Fe4849 Fe    0.93750   0.18750   0.83723   0.01267  Uiso   1.00
Fe4850 Fe    0.93750   0.18750   0.88410   0.01267  Uiso   1.00
Fe4851 Fe    0.93750   0.43750   0.83723   0.01267  Uiso   1.00
Fe4852 Fe    0.93750   0.43750   0.88410   0.01267  Uiso   1.00
Fe4853 Fe    0.56250   0.06250   0.83723   0.01267  Uiso   1.00
Fe4854 Fe    0.56250   0.06250   0.88410   0.01267  Uiso   1.00
Fe4855 Fe    0.56250   0.31250   0.83723   0.01267  Uiso   1.00
Fe4856 Fe    0.56250   0.31250   0.88410   0.01267  Uiso   1.00
Fe4857 Fe    0.81250   0.06250   0.83723   0.01267  Uiso   1.00
Fe4858 Fe    0.81250   0.06250   0.88410   0.01267  Uiso   1.00
Fe4859 Fe    0.81250   0.31250   0.83723   0.01267  Uiso   1.00
Fe4860 Fe    0.81250   0.31250   0.88410   0.01267  Uiso   1.00
Fe4861 Fe    0.50000   0.00000   0.82551   0.01267  Uiso   1.00
Fe4862 Fe    0.50000   0.00000   0.87239   0.01267  Uiso   1.00
Fe4863 Fe    0.50000   0.25000   0.82551   0.01267  Uiso   1.00
Fe4864 Fe    0.50000   0.25000   0.87239   0.01267  Uiso   1.00
Fe4865 Fe    0.75000   0.00000   0.82551   0.01267  Uiso   1.00
Fe4866 Fe    0.75000   0.00000   0.87239   0.01267  Uiso   1.00
Fe4867 Fe    0.75000   0.25000   0.82551   0.01267  Uiso   1.00
Fe4868 Fe    0.75000   0.25000   0.87239   0.01267  Uiso   1.00
Fe4869 Fe    0.62500   0.00000   0.80208   0.01267  Uiso   1.00
Fe4870 Fe    0.62500   0.00000   0.84895   0.01267  Uiso   1.00
Fe4871 Fe    0.62500   0.25000   0.80208   0.01267  Uiso   1.00
Fe4872 Fe    0.62500   0.25000   0.84895   0.01267  Uiso   1.00
Fe4873 Fe    0.87500   0.00000   0.80208   0.01267  Uiso   1.00
Fe4874 Fe    0.87500   0.00000   0.84895   0.01267  Uiso   1.00
Fe4875 Fe    0.87500   0.25000   0.80208   0.01267  Uiso   1.00
Fe4876 Fe    0.87500   0.25000   0.84895   0.01267  Uiso   1.00
Fe4877 Fe    0.50000   0.12500   0.80208   0.01267  Uiso   1.00
Fe4878 Fe    0.50000   0.12500   0.84895   0.01267  Uiso   1.00
Fe4879 Fe    0.50000   0.37500   0.80208   0.01267  Uiso   1.00
Fe4880 Fe    0.50000   0.37500   0.84895   0.01267  Uiso   1.00
Fe4881 Fe    0.75000   0.12500   0.80208   0.01267  Uiso   1.00
Fe4882 Fe    0.75000   0.12500   0.84895   0.01267  Uiso   1.00
Fe4883 Fe    0.75000   0.37500   0.80208   0.01267  Uiso   1.00
Fe4884 Fe    0.75000   0.37500   0.84895   0.01267  Uiso   1.00
Fe4885 Fe    0.62500   0.12500   0.82551   0.01267  Uiso   1.00
Fe4886 Fe    0.62500   0.12500   0.87239   0.01267  Uiso   1.00
Fe4887 Fe    0.62500   0.37500   0.82551   0.01267  Uiso   1.00
Fe4888 Fe    0.62500   0.37500   0.87239   0.01267  Uiso   1.00
Fe4889 Fe    0.87500   0.12500   0.82551   0.01267  Uiso   1.00
Fe4890 Fe    0.87500   0.12500   0.87239   0.01267  Uiso   1.00
Fe4891 Fe    0.87500   0.37500   0.82551   0.01267  Uiso   1.00
Fe4892 Fe    0.87500   0.37500   0.87239   0.01267  Uiso   1.00
Cr4893 Cr    0.18750   0.68750   0.81379   0.01267  Uiso   1.00
Cr4894 Cr    0.18750   0.68750   0.86067   0.01267  Uiso   1.00
Cr4895 Cr    0.18750   0.93750   0.81379   0.01267  Uiso   1.00
Cr4896 Cr    0.18750   0.93750   0.86067   0.01267  Uiso   1.00
Cr4897 Cr    0.43750   0.68750   0.81379   0.01267  Uiso   1.00
Cr4898 Cr    0.43750   0.68750   0.86067   0.01267  Uiso   1.00
Cr4899 Cr    0.43750   0.93750   0.81379   0.01267  Uiso   1.00
Cr4900 Cr    0.43750   0.93750   0.86067   0.01267  Uiso   1.00
Cr4901 Cr    0.06250   0.56250   0.81379   0.01267  Uiso   1.00
Cr4902 Cr    0.06250   0.56250   0.86067   0.01267  Uiso   1.00
Cr4903 Cr    0.06250   0.81250   0.81379   0.01267  Uiso   1.00
Cr4904 Cr    0.06250   0.81250   0.86067   0.01267  Uiso   1.00
Cr4905 Cr    0.31250   0.56250   0.81379   0.01267  Uiso   1.00
Cr4906 Cr    0.31250   0.56250   0.86067   0.01267  Uiso   1.00
Cr4907 Cr    0.31250   0.81250   0.81379   0.01267  Uiso   1.00
Cr4908 Cr    0.31250   0.81250   0.86067   0.01267  Uiso   1.00
Cr4909 Cr    0.06250   0.68750   0.83723   0.01267  Uiso   1.00
Cr4910 Cr    0.06250   0.68750   0.88410   0.01267  Uiso   1.00
Cr4911 Cr    0.06250   0.93750   0.83723   0.01267  Uiso   1.00
Cr4912 Cr    0.06250   0.93750   0.88410   0.01267  Uiso   1.00
Cr4913 Cr    0.31250   0.68750   0.83723   0.01267  Uiso   1.00
Cr4914 Cr    0.31250   0.68750   0.88410   0.01267  Uiso   1.00
Cr4915 Cr    0.31250   0.93750   0.83723   0.01267  Uiso   1.00
Cr4916 Cr    0.31250   0.93750   0.88410   0.01267  Uiso   1.00
Cr4917 Cr    0.18750   0.56250   0.83723   0.01267  Uiso   1.00
Cr4918 Cr    0.18750   0.56250   0.88410   0.01267  Uiso   1.00
Cr4919 Cr    0.18750   0.81250   0.83723   0.01267  Uiso   1.00
Cr4920 Cr    0.18750   0.81250   0.88410   0.01267  Uiso   1.00
Cr4921 Cr    0.43750   0.56250   0.83723   0.01267  Uiso   1.00
Cr4922 Cr    0.43750   0.56250   0.88410   0.01267  Uiso   1.00
Cr4923 Cr    0.43750   0.81250   0.83723   0.01267  Uiso   1.00
Cr4924 Cr    0.43750   0.81250   0.88410   0.01267  Uiso   1.00
Fe4925 Fe    0.18750   0.56250   0.81379   0.01267  Uiso   1.00
Fe4926 Fe    0.18750   0.56250   0.86067   0.01267  Uiso   1.00
Fe4927 Fe    0.18750   0.81250   0.81379   0.01267  Uiso   1.00
Fe4928 Fe    0.18750   0.81250   0.86067   0.01267  Uiso   1.00
Fe4929 Fe    0.43750   0.56250   0.81379   0.01267  Uiso   1.00
Fe4930 Fe    0.43750   0.56250   0.86067   0.01267  Uiso   1.00
Fe4931 Fe    0.43750   0.81250   0.81379   0.01267  Uiso   1.00
Fe4932 Fe    0.43750   0.81250   0.86067   0.01267  Uiso   1.00
Fe4933 Fe    0.06250   0.68750   0.81379   0.01267  Uiso   1.00
Fe4934 Fe    0.06250   0.68750   0.86067   0.01267  Uiso   1.00
Fe4935 Fe    0.06250   0.93750   0.81379   0.01267  Uiso   1.00
Fe4936 Fe    0.06250   0.93750   0.86067   0.01267  Uiso   1.00
Fe4937 Fe    0.31250   0.68750   0.81379   0.01267  Uiso   1.00
Fe4938 Fe    0.31250   0.68750   0.86067   0.01267  Uiso   1.00
Fe4939 Fe    0.31250   0.93750   0.81379   0.01267  Uiso   1.00
Fe4940 Fe    0.31250   0.93750   0.86067   0.01267  Uiso   1.00
Fe4941 Fe    0.00000   0.50000   0.80208   0.01267  Uiso   1.00
Fe4942 Fe    0.00000   0.50000   0.84895   0.01267  Uiso   1.00
Fe4943 Fe    0.00000   0.75000   0.80208   0.01267  Uiso   1.00
Fe4944 Fe    0.00000   0.75000   0.84895   0.01267  Uiso   1.00
Fe4945 Fe    0.25000   0.50000   0.80208   0.01267  Uiso   1.00
Fe4946 Fe    0.25000   0.50000   0.84895   0.01267  Uiso   1.00
Fe4947 Fe    0.25000   0.75000   0.80208   0.01267  Uiso   1.00
Fe4948 Fe    0.25000   0.75000   0.84895   0.01267  Uiso   1.00
Fe4949 Fe    0.12500   0.62500   0.80208   0.01267  Uiso   1.00
Fe4950 Fe    0.12500   0.62500   0.84895   0.01267  Uiso   1.00
Fe4951 Fe    0.12500   0.87500   0.80208   0.01267  Uiso   1.00
Fe4952 Fe    0.12500   0.87500   0.84895   0.01267  Uiso   1.00
Fe4953 Fe    0.37500   0.62500   0.80208   0.01267  Uiso   1.00
Fe4954 Fe    0.37500   0.62500   0.84895   0.01267  Uiso   1.00
Fe4955 Fe    0.37500   0.87500   0.80208   0.01267  Uiso   1.00
Fe4956 Fe    0.37500   0.87500   0.84895   0.01267  Uiso   1.00
Fe4957 Fe    0.12500   0.50000   0.82551   0.01267  Uiso   1.00
Fe4958 Fe    0.12500   0.50000   0.87239   0.01267  Uiso   1.00
Fe4959 Fe    0.12500   0.75000   0.82551   0.01267  Uiso   1.00
Fe4960 Fe    0.12500   0.75000   0.87239   0.01267  Uiso   1.00
Fe4961 Fe    0.37500   0.50000   0.82551   0.01267  Uiso   1.00
Fe4962 Fe    0.37500   0.50000   0.87239   0.01267  Uiso   1.00
Fe4963 Fe    0.37500   0.75000   0.82551   0.01267  Uiso   1.00
Fe4964 Fe    0.37500   0.75000   0.87239   0.01267  Uiso   1.00
Fe4965 Fe    0.00000   0.62500   0.82551   0.01267  Uiso   1.00
Fe4966 Fe    0.00000   0.62500   0.87239   0.01267  Uiso   1.00
Fe4967 Fe    0.00000   0.87500   0.82551   0.01267  Uiso   1.00
Fe4968 Fe    0.00000   0.87500   0.87239   0.01267  Uiso   1.00
Fe4969 Fe    0.25000   0.62500   0.82551   0.01267  Uiso   1.00
Fe4970 Fe    0.25000   0.62500   0.87239   0.01267  Uiso   1.00
Fe4971 Fe    0.25000   0.87500   0.82551   0.01267  Uiso   1.00
Fe4972 Fe    0.25000   0.87500   0.87239   0.01267  Uiso   1.00
Fe4973 Fe    0.18750   0.68750   0.83723   0.01267  Uiso   1.00
Fe4974 Fe    0.18750   0.68750   0.88410   0.01267  Uiso   1.00
Fe4975 Fe    0.18750   0.93750   0.83723   0.01267  Uiso   1.00
Fe4976 Fe    0.18750   0.93750   0.88410   0.01267  Uiso   1.00
Fe4977 Fe    0.43750   0.68750   0.83723   0.01267  Uiso   1.00
Fe4978 Fe    0.43750   0.68750   0.88410   0.01267  Uiso   1.00
Fe4979 Fe    0.43750   0.93750   0.83723   0.01267  Uiso   1.00
Fe4980 Fe    0.43750   0.93750   0.88410   0.01267  Uiso   1.00
Fe4981 Fe    0.06250   0.56250   0.83723   0.01267  Uiso   1.00
Fe4982 Fe    0.06250   0.56250   0.88410   0.01267  Uiso   1.00
Fe4983 Fe    0.06250   0.81250   0.83723   0.01267  Uiso   1.00
Fe4984 Fe    0.06250   0.81250   0.88410   0.01267  Uiso   1.00
Fe4985 Fe    0.31250   0.56250   0.83723   0.01267  Uiso   1.00
Fe4986 Fe    0.31250   0.56250   0.88410   0.01267  Uiso   1.00
Fe4987 Fe    0.31250   0.81250   0.83723   0.01267  Uiso   1.00
Fe4988 Fe    0.31250   0.81250   0.88410   0.01267  Uiso   1.00
Fe4989 Fe    0.00000   0.50000   0.82551   0.01267  Uiso   1.00
Fe4990 Fe    0.00000   0.50000   0.87239   0.01267  Uiso   1.00
Fe4991 Fe    0.00000   0.75000   0.82551   0.01267  Uiso   1.00
Fe4992 Fe    0.00000   0.75000   0.87239   0.01267  Uiso   1.00
Fe4993 Fe    0.25000   0.50000   0.82551   0.01267  Uiso   1.00
Fe4994 Fe    0.25000   0.50000   0.87239   0.01267  Uiso   1.00
Fe4995 Fe    0.25000   0.75000   0.82551   0.01267  Uiso   1.00
Fe4996 Fe    0.25000   0.75000   0.87239   0.01267  Uiso   1.00
Fe4997 Fe    0.12500   0.50000   0.80208   0.01267  Uiso   1.00
Fe4998 Fe    0.12500   0.50000   0.84895   0.01267  Uiso   1.00
Fe4999 Fe    0.12500   0.75000   0.80208   0.01267  Uiso   1.00
Fe5000 Fe    0.12500   0.75000   0.84895   0.01267  Uiso   1.00
Fe5001 Fe    0.37500   0.50000   0.80208   0.01267  Uiso   1.00
Fe5002 Fe    0.37500   0.50000   0.84895   0.01267  Uiso   1.00
Fe5003 Fe    0.37500   0.75000   0.80208   0.01267  Uiso   1.00
Fe5004 Fe    0.37500   0.75000   0.84895   0.01267  Uiso   1.00
Fe5005 Fe    0.00000   0.62500   0.80208   0.01267  Uiso   1.00
Fe5006 Fe    0.00000   0.62500   0.84895   0.01267  Uiso   1.00
Fe5007 Fe    0.00000   0.87500   0.80208   0.01267  Uiso   1.00
Fe5008 Fe    0.00000   0.87500   0.84895   0.01267  Uiso   1.00
Fe5009 Fe    0.25000   0.62500   0.80208   0.01267  Uiso   1.00
Fe5010 Fe    0.25000   0.62500   0.84895   0.01267  Uiso   1.00
Fe5011 Fe    0.25000   0.87500   0.80208   0.01267  Uiso   1.00
Fe5012 Fe    0.25000   0.87500   0.84895   0.01267  Uiso   1.00
Fe5013 Fe    0.12500   0.62500   0.82551   0.01267  Uiso   1.00
Fe5014 Fe    0.12500   0.62500   0.87239   0.01267  Uiso   1.00
Fe5015 Fe    0.12500   0.87500   0.82551   0.01267  Uiso   1.00
Fe5016 Fe    0.12500   0.87500   0.87239   0.01267  Uiso   1.00
Fe5017 Fe    0.37500   0.62500   0.82551   0.01267  Uiso   1.00
Fe5018 Fe    0.37500   0.62500   0.87239   0.01267  Uiso   1.00
Fe5019 Fe    0.37500   0.87500   0.82551   0.01267  Uiso   1.00
Fe5020 Fe    0.37500   0.87500   0.87239   0.01267  Uiso   1.00
Cr5021 Cr    0.68750   0.68750   0.81379   0.01267  Uiso   1.00
Cr5022 Cr    0.68750   0.68750   0.86067   0.01267  Uiso   1.00
Cr5023 Cr    0.68750   0.93750   0.81379   0.01267  Uiso   1.00
Cr5024 Cr    0.68750   0.93750   0.86067   0.01267  Uiso   1.00
Cr5025 Cr    0.93750   0.68750   0.81379   0.01267  Uiso   1.00
Cr5026 Cr    0.93750   0.68750   0.86067   0.01267  Uiso   1.00
Cr5027 Cr    0.93750   0.93750   0.81379   0.01267  Uiso   1.00
Cr5028 Cr    0.93750   0.93750   0.86067   0.01267  Uiso   1.00
Cr5029 Cr    0.56250   0.56250   0.81379   0.01267  Uiso   1.00
Cr5030 Cr    0.56250   0.56250   0.86067   0.01267  Uiso   1.00
Cr5031 Cr    0.56250   0.81250   0.81379   0.01267  Uiso   1.00
Cr5032 Cr    0.56250   0.81250   0.86067   0.01267  Uiso   1.00
Cr5033 Cr    0.81250   0.56250   0.81379   0.01267  Uiso   1.00
Cr5034 Cr    0.81250   0.56250   0.86067   0.01267  Uiso   1.00
Cr5035 Cr    0.81250   0.81250   0.81379   0.01267  Uiso   1.00
Cr5036 Cr    0.81250   0.81250   0.86067   0.01267  Uiso   1.00
Cr5037 Cr    0.56250   0.68750   0.83723   0.01267  Uiso   1.00
Cr5038 Cr    0.56250   0.68750   0.88410   0.01267  Uiso   1.00
Cr5039 Cr    0.56250   0.93750   0.83723   0.01267  Uiso   1.00
Cr5040 Cr    0.56250   0.93750   0.88410   0.01267  Uiso   1.00
Cr5041 Cr    0.81250   0.68750   0.83723   0.01267  Uiso   1.00
Cr5042 Cr    0.81250   0.68750   0.88410   0.01267  Uiso   1.00
Cr5043 Cr    0.81250   0.93750   0.83723   0.01267  Uiso   1.00
Cr5044 Cr    0.81250   0.93750   0.88410   0.01267  Uiso   1.00
Cr5045 Cr    0.68750   0.56250   0.83723   0.01267  Uiso   1.00
Cr5046 Cr    0.68750   0.56250   0.88410   0.01267  Uiso   1.00
Cr5047 Cr    0.68750   0.81250   0.83723   0.01267  Uiso   1.00
Cr5048 Cr    0.68750   0.81250   0.88410   0.01267  Uiso   1.00
Cr5049 Cr    0.93750   0.56250   0.83723   0.01267  Uiso   1.00
Cr5050 Cr    0.93750   0.56250   0.88410   0.01267  Uiso   1.00
Cr5051 Cr    0.93750   0.81250   0.83723   0.01267  Uiso   1.00
Cr5052 Cr    0.93750   0.81250   0.88410   0.01267  Uiso   1.00
Fe5053 Fe    0.68750   0.56250   0.81379   0.01267  Uiso   1.00
Fe5054 Fe    0.68750   0.56250   0.86067   0.01267  Uiso   1.00
Fe5055 Fe    0.68750   0.81250   0.81379   0.01267  Uiso   1.00
Fe5056 Fe    0.68750   0.81250   0.86067   0.01267  Uiso   1.00
Fe5057 Fe    0.93750   0.56250   0.81379   0.01267  Uiso   1.00
Fe5058 Fe    0.93750   0.56250   0.86067   0.01267  Uiso   1.00
Fe5059 Fe    0.93750   0.81250   0.81379   0.01267  Uiso   1.00
Fe5060 Fe    0.93750   0.81250   0.86067   0.01267  Uiso   1.00
Fe5061 Fe    0.56250   0.68750   0.81379   0.01267  Uiso   1.00
Fe5062 Fe    0.56250   0.68750   0.86067   0.01267  Uiso   1.00
Fe5063 Fe    0.56250   0.93750   0.81379   0.01267  Uiso   1.00
Fe5064 Fe    0.56250   0.93750   0.86067   0.01267  Uiso   1.00
Fe5065 Fe    0.81250   0.68750   0.81379   0.01267  Uiso   1.00
Fe5066 Fe    0.81250   0.68750   0.86067   0.01267  Uiso   1.00
Fe5067 Fe    0.81250   0.93750   0.81379   0.01267  Uiso   1.00
Fe5068 Fe    0.81250   0.93750   0.86067   0.01267  Uiso   1.00
Fe5069 Fe    0.50000   0.50000   0.80208   0.01267  Uiso   1.00
Fe5070 Fe    0.50000   0.50000   0.84895   0.01267  Uiso   1.00
Fe5071 Fe    0.50000   0.75000   0.80208   0.01267  Uiso   1.00
Fe5072 Fe    0.50000   0.75000   0.84895   0.01267  Uiso   1.00
Fe5073 Fe    0.75000   0.50000   0.80208   0.01267  Uiso   1.00
Fe5074 Fe    0.75000   0.50000   0.84895   0.01267  Uiso   1.00
Fe5075 Fe    0.75000   0.75000   0.80208   0.01267  Uiso   1.00
Fe5076 Fe    0.75000   0.75000   0.84895   0.01267  Uiso   1.00
Fe5077 Fe    0.62500   0.62500   0.80208   0.01267  Uiso   1.00
Fe5078 Fe    0.62500   0.62500   0.84895   0.01267  Uiso   1.00
Fe5079 Fe    0.62500   0.87500   0.80208   0.01267  Uiso   1.00
Fe5080 Fe    0.62500   0.87500   0.84895   0.01267  Uiso   1.00
Fe5081 Fe    0.87500   0.62500   0.80208   0.01267  Uiso   1.00
Fe5082 Fe    0.87500   0.62500   0.84895   0.01267  Uiso   1.00
Fe5083 Fe    0.87500   0.87500   0.80208   0.01267  Uiso   1.00
Fe5084 Fe    0.87500   0.87500   0.84895   0.01267  Uiso   1.00
Fe5085 Fe    0.62500   0.50000   0.82551   0.01267  Uiso   1.00
Fe5086 Fe    0.62500   0.50000   0.87239   0.01267  Uiso   1.00
Fe5087 Fe    0.62500   0.75000   0.82551   0.01267  Uiso   1.00
Fe5088 Fe    0.62500   0.75000   0.87239   0.01267  Uiso   1.00
Fe5089 Fe    0.87500   0.50000   0.82551   0.01267  Uiso   1.00
Fe5090 Fe    0.87500   0.50000   0.87239   0.01267  Uiso   1.00
Fe5091 Fe    0.87500   0.75000   0.82551   0.01267  Uiso   1.00
Fe5092 Fe    0.87500   0.75000   0.87239   0.01267  Uiso   1.00
Fe5093 Fe    0.50000   0.62500   0.82551   0.01267  Uiso   1.00
Fe5094 Fe    0.50000   0.62500   0.87239   0.01267  Uiso   1.00
Fe5095 Fe    0.50000   0.87500   0.82551   0.01267  Uiso   1.00
Fe5096 Fe    0.50000   0.87500   0.87239   0.01267  Uiso   1.00
Fe5097 Fe    0.75000   0.62500   0.82551   0.01267  Uiso   1.00
Fe5098 Fe    0.75000   0.62500   0.87239   0.01267  Uiso   1.00
Fe5099 Fe    0.75000   0.87500   0.82551   0.01267  Uiso   1.00
Fe5100 Fe    0.75000   0.87500   0.87239   0.01267  Uiso   1.00
Fe5101 Fe    0.68750   0.68750   0.83723   0.01267  Uiso   1.00
Fe5102 Fe    0.68750   0.68750   0.88410   0.01267  Uiso   1.00
Fe5103 Fe    0.68750   0.93750   0.83723   0.01267  Uiso   1.00
Fe5104 Fe    0.68750   0.93750   0.88410   0.01267  Uiso   1.00
Fe5105 Fe    0.93750   0.68750   0.83723   0.01267  Uiso   1.00
Fe5106 Fe    0.93750   0.68750   0.88410   0.01267  Uiso   1.00
Fe5107 Fe    0.93750   0.93750   0.83723   0.01267  Uiso   1.00
Fe5108 Fe    0.93750   0.93750   0.88410   0.01267  Uiso   1.00
Fe5109 Fe    0.56250   0.56250   0.83723   0.01267  Uiso   1.00
Fe5110 Fe    0.56250   0.56250   0.88410   0.01267  Uiso   1.00
Fe5111 Fe    0.56250   0.81250   0.83723   0.01267  Uiso   1.00
Fe5112 Fe    0.56250   0.81250   0.88410   0.01267  Uiso   1.00
Fe5113 Fe    0.81250   0.56250   0.83723   0.01267  Uiso   1.00
Fe5114 Fe    0.81250   0.56250   0.88410   0.01267  Uiso   1.00
Fe5115 Fe    0.81250   0.81250   0.83723   0.01267  Uiso   1.00
Fe5116 Fe    0.81250   0.81250   0.88410   0.01267  Uiso   1.00
Fe5117 Fe    0.50000   0.50000   0.82551   0.01267  Uiso   1.00
Fe5118 Fe    0.50000   0.50000   0.87239   0.01267  Uiso   1.00
Fe5119 Fe    0.50000   0.75000   0.82551   0.01267  Uiso   1.00
Fe5120 Fe    0.50000   0.75000   0.87239   0.01267  Uiso   1.00
Fe5121 Fe    0.75000   0.50000   0.82551   0.01267  Uiso   1.00
Fe5122 Fe    0.75000   0.50000   0.87239   0.01267  Uiso   1.00
Fe5123 Fe    0.75000   0.75000   0.82551   0.01267  Uiso   1.00
Fe5124 Fe    0.75000   0.75000   0.87239   0.01267  Uiso   1.00
Fe5125 Fe    0.62500   0.50000   0.80208   0.01267  Uiso   1.00
Fe5126 Fe    0.62500   0.50000   0.84895   0.01267  Uiso   1.00
Fe5127 Fe    0.62500   0.75000   0.80208   0.01267  Uiso   1.00
Fe5128 Fe    0.62500   0.75000   0.84895   0.01267  Uiso   1.00
Fe5129 Fe    0.87500   0.50000   0.80208   0.01267  Uiso   1.00
Fe5130 Fe    0.87500   0.50000   0.84895   0.01267  Uiso   1.00
Fe5131 Fe    0.87500   0.75000   0.80208   0.01267  Uiso   1.00
Fe5132 Fe    0.87500   0.75000   0.84895   0.01267  Uiso   1.00
Fe5133 Fe    0.50000   0.62500   0.80208   0.01267  Uiso   1.00
Fe5134 Fe    0.50000   0.62500   0.84895   0.01267  Uiso   1.00
Fe5135 Fe    0.50000   0.87500   0.80208   0.01267  Uiso   1.00
Fe5136 Fe    0.50000   0.87500   0.84895   0.01267  Uiso   1.00
Fe5137 Fe    0.75000   0.62500   0.80208   0.01267  Uiso   1.00
Fe5138 Fe    0.75000   0.62500   0.84895   0.01267  Uiso   1.00
Fe5139 Fe    0.75000   0.87500   0.80208   0.01267  Uiso   1.00
Fe5140 Fe    0.75000   0.87500   0.84895   0.01267  Uiso   1.00
Fe5141 Fe    0.62500   0.62500   0.82551   0.01267  Uiso   1.00
Fe5142 Fe    0.62500   0.62500   0.87239   0.01267  Uiso   1.00
Fe5143 Fe    0.62500   0.87500   0.82551   0.01267  Uiso   1.00
Fe5144 Fe    0.62500   0.87500   0.87239   0.01267  Uiso   1.00
Fe5145 Fe    0.87500   0.62500   0.82551   0.01267  Uiso   1.00
Fe5146 Fe    0.87500   0.62500   0.87239   0.01267  Uiso   1.00
Fe5147 Fe    0.87500   0.87500   0.82551   0.01267  Uiso   1.00
Fe5148 Fe    0.87500   0.87500   0.87239   0.01267  Uiso   1.00
Cr5149 Cr    0.18750   0.18750   0.90754   0.01267  Uiso   1.00
Cr5150 Cr    0.18750   0.18750   0.95441   0.01267  Uiso   1.00
Cr5151 Cr    0.18750   0.43750   0.90754   0.01267  Uiso   1.00
Cr5152 Cr    0.18750   0.43750   0.95441   0.01267  Uiso   1.00
Cr5153 Cr    0.43750   0.18750   0.90754   0.01267  Uiso   1.00
Cr5154 Cr    0.43750   0.18750   0.95441   0.01267  Uiso   1.00
Cr5155 Cr    0.43750   0.43750   0.90754   0.01267  Uiso   1.00
Cr5156 Cr    0.43750   0.43750   0.95441   0.01267  Uiso   1.00
Cr5157 Cr    0.06250   0.06250   0.90754   0.01267  Uiso   1.00
Cr5158 Cr    0.06250   0.06250   0.95441   0.01267  Uiso   1.00
Cr5159 Cr    0.06250   0.31250   0.90754   0.01267  Uiso   1.00
Cr5160 Cr    0.06250   0.31250   0.95441   0.01267  Uiso   1.00
Cr5161 Cr    0.31250   0.06250   0.90754   0.01267  Uiso   1.00
Cr5162 Cr    0.31250   0.06250   0.95441   0.01267  Uiso   1.00
Cr5163 Cr    0.31250   0.31250   0.90754   0.01267  Uiso   1.00
Cr5164 Cr    0.31250   0.31250   0.95441   0.01267  Uiso   1.00
Cr5165 Cr    0.06250   0.18750   0.93098   0.01267  Uiso   1.00
Cr5166 Cr    0.06250   0.18750   0.97785   0.01267  Uiso   1.00
Cr5167 Cr    0.06250   0.43750   0.93098   0.01267  Uiso   1.00
Cr5168 Cr    0.06250   0.43750   0.97785   0.01267  Uiso   1.00
Cr5169 Cr    0.31250   0.18750   0.93098   0.01267  Uiso   1.00
Cr5170 Cr    0.31250   0.18750   0.97785   0.01267  Uiso   1.00
Cr5171 Cr    0.31250   0.43750   0.93098   0.01267  Uiso   1.00
Cr5172 Cr    0.31250   0.43750   0.97785   0.01267  Uiso   1.00
Cr5173 Cr    0.18750   0.06250   0.93098   0.01267  Uiso   1.00
Cr5174 Cr    0.18750   0.06250   0.97785   0.01267  Uiso   1.00
Cr5175 Cr    0.18750   0.31250   0.93098   0.01267  Uiso   1.00
Cr5176 Cr    0.18750   0.31250   0.97785   0.01267  Uiso   1.00
Cr5177 Cr    0.43750   0.06250   0.93098   0.01267  Uiso   1.00
Cr5178 Cr    0.43750   0.06250   0.97785   0.01267  Uiso   1.00
Cr5179 Cr    0.43750   0.31250   0.93098   0.01267  Uiso   1.00
Cr5180 Cr    0.43750   0.31250   0.97785   0.01267  Uiso   1.00
Fe5181 Fe    0.18750   0.06250   0.90754   0.01267  Uiso   1.00
Fe5182 Fe    0.18750   0.06250   0.95441   0.01267  Uiso   1.00
Fe5183 Fe    0.18750   0.31250   0.90754   0.01267  Uiso   1.00
Fe5184 Fe    0.18750   0.31250   0.95441   0.01267  Uiso   1.00
Fe5185 Fe    0.43750   0.06250   0.90754   0.01267  Uiso   1.00
Fe5186 Fe    0.43750   0.06250   0.95441   0.01267  Uiso   1.00
Fe5187 Fe    0.43750   0.31250   0.90754   0.01267  Uiso   1.00
Fe5188 Fe    0.43750   0.31250   0.95441   0.01267  Uiso   1.00
Fe5189 Fe    0.06250   0.18750   0.90754   0.01267  Uiso   1.00
Fe5190 Fe    0.06250   0.18750   0.95441   0.01267  Uiso   1.00
Fe5191 Fe    0.06250   0.43750   0.90754   0.01267  Uiso   1.00
Fe5192 Fe    0.06250   0.43750   0.95441   0.01267  Uiso   1.00
Fe5193 Fe    0.31250   0.18750   0.90754   0.01267  Uiso   1.00
Fe5194 Fe    0.31250   0.18750   0.95441   0.01267  Uiso   1.00
Fe5195 Fe    0.31250   0.43750   0.90754   0.01267  Uiso   1.00
Fe5196 Fe    0.31250   0.43750   0.95441   0.01267  Uiso   1.00
Fe5197 Fe    0.00000   0.00000   0.89582   0.01267  Uiso   1.00
Fe5198 Fe    0.00000   0.00000   0.94269   0.01267  Uiso   1.00
Fe5199 Fe    0.00000   0.25000   0.89582   0.01267  Uiso   1.00
Fe5200 Fe    0.00000   0.25000   0.94269   0.01267  Uiso   1.00
Fe5201 Fe    0.25000   0.00000   0.89582   0.01267  Uiso   1.00
Fe5202 Fe    0.25000   0.00000   0.94269   0.01267  Uiso   1.00
Fe5203 Fe    0.25000   0.25000   0.89582   0.01267  Uiso   1.00
Fe5204 Fe    0.25000   0.25000   0.94269   0.01267  Uiso   1.00
Fe5205 Fe    0.12500   0.12500   0.89582   0.01267  Uiso   1.00
Fe5206 Fe    0.12500   0.12500   0.94269   0.01267  Uiso   1.00
Fe5207 Fe    0.12500   0.37500   0.89582   0.01267  Uiso   1.00
Fe5208 Fe    0.12500   0.37500   0.94269   0.01267  Uiso   1.00
Fe5209 Fe    0.37500   0.12500   0.89582   0.01267  Uiso   1.00
Fe5210 Fe    0.37500   0.12500   0.94269   0.01267  Uiso   1.00
Fe5211 Fe    0.37500   0.37500   0.89582   0.01267  Uiso   1.00
Fe5212 Fe    0.37500   0.37500   0.94269   0.01267  Uiso   1.00
Fe5213 Fe    0.12500   0.00000   0.91926   0.01267  Uiso   1.00
Fe5214 Fe    0.12500   0.00000   0.96613   0.01267  Uiso   1.00
Fe5215 Fe    0.12500   0.25000   0.91926   0.01267  Uiso   1.00
Fe5216 Fe    0.12500   0.25000   0.96613   0.01267  Uiso   1.00
Fe5217 Fe    0.37500   0.00000   0.91926   0.01267  Uiso   1.00
Fe5218 Fe    0.37500   0.00000   0.96613   0.01267  Uiso   1.00
Fe5219 Fe    0.37500   0.25000   0.91926   0.01267  Uiso   1.00
Fe5220 Fe    0.37500   0.25000   0.96613   0.01267  Uiso   1.00
Fe5221 Fe    0.00000   0.12500   0.91926   0.01267  Uiso   1.00
Fe5222 Fe    0.00000   0.12500   0.96613   0.01267  Uiso   1.00
Fe5223 Fe    0.00000   0.37500   0.91926   0.01267  Uiso   1.00
Fe5224 Fe    0.00000   0.37500   0.96613   0.01267  Uiso   1.00
Fe5225 Fe    0.25000   0.12500   0.91926   0.01267  Uiso   1.00
Fe5226 Fe    0.25000   0.12500   0.96613   0.01267  Uiso   1.00
Fe5227 Fe    0.25000   0.37500   0.91926   0.01267  Uiso   1.00
Fe5228 Fe    0.25000   0.37500   0.96613   0.01267  Uiso   1.00
Fe5229 Fe    0.18750   0.18750   0.93098   0.01267  Uiso   1.00
Fe5230 Fe    0.18750   0.18750   0.97785   0.01267  Uiso   1.00
Fe5231 Fe    0.18750   0.43750   0.93098   0.01267  Uiso   1.00
Fe5232 Fe    0.18750   0.43750   0.97785   0.01267  Uiso   1.00
Fe5233 Fe    0.43750   0.18750   0.93098   0.01267  Uiso   1.00
Fe5234 Fe    0.43750   0.18750   0.97785   0.01267  Uiso   1.00
Fe5235 Fe    0.43750   0.43750   0.93098   0.01267  Uiso   1.00
Fe5236 Fe    0.43750   0.43750   0.97785   0.01267  Uiso   1.00
Fe5237 Fe    0.06250   0.06250   0.93098   0.01267  Uiso   1.00
Fe5238 Fe    0.06250   0.06250   0.97785   0.01267  Uiso   1.00
Fe5239 Fe    0.06250   0.31250   0.93098   0.01267  Uiso   1.00
Fe5240 Fe    0.06250   0.31250   0.97785   0.01267  Uiso   1.00
Fe5241 Fe    0.31250   0.06250   0.93098   0.01267  Uiso   1.00
Fe5242 Fe    0.31250   0.06250   0.97785   0.01267  Uiso   1.00
Fe5243 Fe    0.31250   0.31250   0.93098   0.01267  Uiso   1.00
Fe5244 Fe    0.31250   0.31250   0.97785   0.01267  Uiso   1.00
Fe5245 Fe    0.00000   0.00000   0.91926   0.01267  Uiso   1.00
Fe5246 Fe    0.00000   0.00000   0.96613   0.01267  Uiso   1.00
Fe5247 Fe    0.00000   0.25000   0.91926   0.01267  Uiso   1.00
Fe5248 Fe    0.00000   0.25000   0.96613   0.01267  Uiso   1.00
Fe5249 Fe    0.25000   0.00000   0.91926   0.01267  Uiso   1.00
Fe5250 Fe    0.25000   0.00000   0.96613   0.01267  Uiso   1.00
Fe5251 Fe    0.25000   0.25000   0.91926   0.01267  Uiso   1.00
Fe5252 Fe    0.25000   0.25000   0.96613   0.01267  Uiso   1.00
Fe5253 Fe    0.12500   0.00000   0.89582   0.01267  Uiso   1.00
Fe5254 Fe    0.12500   0.00000   0.94269   0.01267  Uiso   1.00
Fe5255 Fe    0.12500   0.25000   0.89582   0.01267  Uiso   1.00
Fe5256 Fe    0.12500   0.25000   0.94269   0.01267  Uiso   1.00
Fe5257 Fe    0.37500   0.00000   0.89582   0.01267  Uiso   1.00
Fe5258 Fe    0.37500   0.00000   0.94269   0.01267  Uiso   1.00
Fe5259 Fe    0.37500   0.25000   0.89582   0.01267  Uiso   1.00
Fe5260 Fe    0.37500   0.25000   0.94269   0.01267  Uiso   1.00
Fe5261 Fe    0.00000   0.12500   0.89582   0.01267  Uiso   1.00
Fe5262 Fe    0.00000   0.12500   0.94269   0.01267  Uiso   1.00
Fe5263 Fe    0.00000   0.37500   0.89582   0.01267  Uiso   1.00
Fe5264 Fe    0.00000   0.37500   0.94269   0.01267  Uiso   1.00
Fe5265 Fe    0.25000   0.12500   0.89582   0.01267  Uiso   1.00
Fe5266 Fe    0.25000   0.12500   0.94269   0.01267  Uiso   1.00
Fe5267 Fe    0.25000   0.37500   0.89582   0.01267  Uiso   1.00
Fe5268 Fe    0.25000   0.37500   0.94269   0.01267  Uiso   1.00
Fe5269 Fe    0.12500   0.12500   0.91926   0.01267  Uiso   1.00
Fe5270 Fe    0.12500   0.12500   0.96613   0.01267  Uiso   1.00
Fe5271 Fe    0.12500   0.37500   0.91926   0.01267  Uiso   1.00
Fe5272 Fe    0.12500   0.37500   0.96613   0.01267  Uiso   1.00
Fe5273 Fe    0.37500   0.12500   0.91926   0.01267  Uiso   1.00
Fe5274 Fe    0.37500   0.12500   0.96613   0.01267  Uiso   1.00
Fe5275 Fe    0.37500   0.37500   0.91926   0.01267  Uiso   1.00
Fe5276 Fe    0.37500   0.37500   0.96613   0.01267  Uiso   1.00
Cr5277 Cr    0.68750   0.18750   0.90754   0.01267  Uiso   1.00
Cr5278 Cr    0.68750   0.18750   0.95441   0.01267  Uiso   1.00
Cr5279 Cr    0.68750   0.43750   0.90754   0.01267  Uiso   1.00
Cr5280 Cr    0.68750   0.43750   0.95441   0.01267  Uiso   1.00
Cr5281 Cr    0.93750   0.18750   0.90754   0.01267  Uiso   1.00
Cr5282 Cr    0.93750   0.18750   0.95441   0.01267  Uiso   1.00
Cr5283 Cr    0.93750   0.43750   0.90754   0.01267  Uiso   1.00
Cr5284 Cr    0.93750   0.43750   0.95441   0.01267  Uiso   1.00
Cr5285 Cr    0.56250   0.06250   0.90754   0.01267  Uiso   1.00
Cr5286 Cr    0.56250   0.06250   0.95441   0.01267  Uiso   1.00
Cr5287 Cr    0.56250   0.31250   0.90754   0.01267  Uiso   1.00
Cr5288 Cr    0.56250   0.31250   0.95441   0.01267  Uiso   1.00
Cr5289 Cr    0.81250   0.06250   0.90754   0.01267  Uiso   1.00
Cr5290 Cr    0.81250   0.06250   0.95441   0.01267  Uiso   1.00
Cr5291 Cr    0.81250   0.31250   0.90754   0.01267  Uiso   1.00
Cr5292 Cr    0.81250   0.31250   0.95441   0.01267  Uiso   1.00
Cr5293 Cr    0.56250   0.18750   0.93098   0.01267  Uiso   1.00
Cr5294 Cr    0.56250   0.18750   0.97785   0.01267  Uiso   1.00
Cr5295 Cr    0.56250   0.43750   0.93098   0.01267  Uiso   1.00
Cr5296 Cr    0.56250   0.43750   0.97785   0.01267  Uiso   1.00
Cr5297 Cr    0.81250   0.18750   0.93098   0.01267  Uiso   1.00
Cr5298 Cr    0.81250   0.18750   0.97785   0.01267  Uiso   1.00
Cr5299 Cr    0.81250   0.43750   0.93098   0.01267  Uiso   1.00
Cr5300 Cr    0.81250   0.43750   0.97785   0.01267  Uiso   1.00
Cr5301 Cr    0.68750   0.06250   0.93098   0.01267  Uiso   1.00
Cr5302 Cr    0.68750   0.06250   0.97785   0.01267  Uiso   1.00
Cr5303 Cr    0.68750   0.31250   0.93098   0.01267  Uiso   1.00
Cr5304 Cr    0.68750   0.31250   0.97785   0.01267  Uiso   1.00
Cr5305 Cr    0.93750   0.06250   0.93098   0.01267  Uiso   1.00
Cr5306 Cr    0.93750   0.06250   0.97785   0.01267  Uiso   1.00
Cr5307 Cr    0.93750   0.31250   0.93098   0.01267  Uiso   1.00
Cr5308 Cr    0.93750   0.31250   0.97785   0.01267  Uiso   1.00
Fe5309 Fe    0.68750   0.06250   0.90754   0.01267  Uiso   1.00
Fe5310 Fe    0.68750   0.06250   0.95441   0.01267  Uiso   1.00
Fe5311 Fe    0.68750   0.31250   0.90754   0.01267  Uiso   1.00
Fe5312 Fe    0.68750   0.31250   0.95441   0.01267  Uiso   1.00
Fe5313 Fe    0.93750   0.06250   0.90754   0.01267  Uiso   1.00
Fe5314 Fe    0.93750   0.06250   0.95441   0.01267  Uiso   1.00
Fe5315 Fe    0.93750   0.31250   0.90754   0.01267  Uiso   1.00
Fe5316 Fe    0.93750   0.31250   0.95441   0.01267  Uiso   1.00
Fe5317 Fe    0.56250   0.18750   0.90754   0.01267  Uiso   1.00
Fe5318 Fe    0.56250   0.18750   0.95441   0.01267  Uiso   1.00
Fe5319 Fe    0.56250   0.43750   0.90754   0.01267  Uiso   1.00
Fe5320 Fe    0.56250   0.43750   0.95441   0.01267  Uiso   1.00
Fe5321 Fe    0.81250   0.18750   0.90754   0.01267  Uiso   1.00
Fe5322 Fe    0.81250   0.18750   0.95441   0.01267  Uiso   1.00
Fe5323 Fe    0.81250   0.43750   0.90754   0.01267  Uiso   1.00
Fe5324 Fe    0.81250   0.43750   0.95441   0.01267  Uiso   1.00
Fe5325 Fe    0.50000   0.00000   0.89582   0.01267  Uiso   1.00
Fe5326 Fe    0.50000   0.00000   0.94269   0.01267  Uiso   1.00
Fe5327 Fe    0.50000   0.25000   0.89582   0.01267  Uiso   1.00
Fe5328 Fe    0.50000   0.25000   0.94269   0.01267  Uiso   1.00
Fe5329 Fe    0.75000   0.00000   0.89582   0.01267  Uiso   1.00
Fe5330 Fe    0.75000   0.00000   0.94269   0.01267  Uiso   1.00
Fe5331 Fe    0.75000   0.25000   0.89582   0.01267  Uiso   1.00
Fe5332 Fe    0.75000   0.25000   0.94269   0.01267  Uiso   1.00
Fe5333 Fe    0.62500   0.12500   0.89582   0.01267  Uiso   1.00
Fe5334 Fe    0.62500   0.12500   0.94269   0.01267  Uiso   1.00
Fe5335 Fe    0.62500   0.37500   0.89582   0.01267  Uiso   1.00
Fe5336 Fe    0.62500   0.37500   0.94269   0.01267  Uiso   1.00
Fe5337 Fe    0.87500   0.12500   0.89582   0.01267  Uiso   1.00
Fe5338 Fe    0.87500   0.12500   0.94269   0.01267  Uiso   1.00
Fe5339 Fe    0.87500   0.37500   0.89582   0.01267  Uiso   1.00
Fe5340 Fe    0.87500   0.37500   0.94269   0.01267  Uiso   1.00
Fe5341 Fe    0.62500   0.00000   0.91926   0.01267  Uiso   1.00
Fe5342 Fe    0.62500   0.00000   0.96613   0.01267  Uiso   1.00
Fe5343 Fe    0.62500   0.25000   0.91926   0.01267  Uiso   1.00
Fe5344 Fe    0.62500   0.25000   0.96613   0.01267  Uiso   1.00
Fe5345 Fe    0.87500   0.00000   0.91926   0.01267  Uiso   1.00
Fe5346 Fe    0.87500   0.00000   0.96613   0.01267  Uiso   1.00
Fe5347 Fe    0.87500   0.25000   0.91926   0.01267  Uiso   1.00
Fe5348 Fe    0.87500   0.25000   0.96613   0.01267  Uiso   1.00
Fe5349 Fe    0.50000   0.12500   0.91926   0.01267  Uiso   1.00
Fe5350 Fe    0.50000   0.12500   0.96613   0.01267  Uiso   1.00
Fe5351 Fe    0.50000   0.37500   0.91926   0.01267  Uiso   1.00
Fe5352 Fe    0.50000   0.37500   0.96613   0.01267  Uiso   1.00
Fe5353 Fe    0.75000   0.12500   0.91926   0.01267  Uiso   1.00
Fe5354 Fe    0.75000   0.12500   0.96613   0.01267  Uiso   1.00
Fe5355 Fe    0.75000   0.37500   0.91926   0.01267  Uiso   1.00
Fe5356 Fe    0.75000   0.37500   0.96613   0.01267  Uiso   1.00
Fe5357 Fe    0.68750   0.18750   0.93098   0.01267  Uiso   1.00
Fe5358 Fe    0.68750   0.18750   0.97785   0.01267  Uiso   1.00
Fe5359 Fe    0.68750   0.43750   0.93098   0.01267  Uiso   1.00
Fe5360 Fe    0.68750   0.43750   0.97785   0.01267  Uiso   1.00
Fe5361 Fe    0.93750   0.18750   0.93098   0.01267  Uiso   1.00
Fe5362 Fe    0.93750   0.18750   0.97785   0.01267  Uiso   1.00
Fe5363 Fe    0.93750   0.43750   0.93098   0.01267  Uiso   1.00
Fe5364 Fe    0.93750   0.43750   0.97785   0.01267  Uiso   1.00
Fe5365 Fe    0.56250   0.06250   0.93098   0.01267  Uiso   1.00
Fe5366 Fe    0.56250   0.06250   0.97785   0.01267  Uiso   1.00
Fe5367 Fe    0.56250   0.31250   0.93098   0.01267  Uiso   1.00
Fe5368 Fe    0.56250   0.31250   0.97785   0.01267  Uiso   1.00
Fe5369 Fe    0.81250   0.06250   0.93098   0.01267  Uiso   1.00
Fe5370 Fe    0.81250   0.06250   0.97785   0.01267  Uiso   1.00
Fe5371 Fe    0.81250   0.31250   0.93098   0.01267  Uiso   1.00
Fe5372 Fe    0.81250   0.31250   0.97785   0.01267  Uiso   1.00
Fe5373 Fe    0.50000   0.00000   0.91926   0.01267  Uiso   1.00
Fe5374 Fe    0.50000   0.00000   0.96613   0.01267  Uiso   1.00
Fe5375 Fe    0.50000   0.25000   0.91926   0.01267  Uiso   1.00
Fe5376 Fe    0.50000   0.25000   0.96613   0.01267  Uiso   1.00
Fe5377 Fe    0.75000   0.00000   0.91926   0.01267  Uiso   1.00
Fe5378 Fe    0.75000   0.00000   0.96613   0.01267  Uiso   1.00
Fe5379 Fe    0.75000   0.25000   0.91926   0.01267  Uiso   1.00
Fe5380 Fe    0.75000   0.25000   0.96613   0.01267  Uiso   1.00
Fe5381 Fe    0.62500   0.00000   0.89582   0.01267  Uiso   1.00
Fe5382 Fe    0.62500   0.00000   0.94269   0.01267  Uiso   1.00
Fe5383 Fe    0.62500   0.25000   0.89582   0.01267  Uiso   1.00
Fe5384 Fe    0.62500   0.25000   0.94269   0.01267  Uiso   1.00
Fe5385 Fe    0.87500   0.00000   0.89582   0.01267  Uiso   1.00
Fe5386 Fe    0.87500   0.00000   0.94269   0.01267  Uiso   1.00
Fe5387 Fe    0.87500   0.25000   0.89582   0.01267  Uiso   1.00
Fe5388 Fe    0.87500   0.25000   0.94269   0.01267  Uiso   1.00
Fe5389 Fe    0.50000   0.12500   0.89582   0.01267  Uiso   1.00
Fe5390 Fe    0.50000   0.12500   0.94269   0.01267  Uiso   1.00
Fe5391 Fe    0.50000   0.37500   0.89582   0.01267  Uiso   1.00
Fe5392 Fe    0.50000   0.37500   0.94269   0.01267  Uiso   1.00
Fe5393 Fe    0.75000   0.12500   0.89582   0.01267  Uiso   1.00
Fe5394 Fe    0.75000   0.12500   0.94269   0.01267  Uiso   1.00
Fe5395 Fe    0.75000   0.37500   0.89582   0.01267  Uiso   1.00
Fe5396 Fe    0.75000   0.37500   0.94269   0.01267  Uiso   1.00
Fe5397 Fe    0.62500   0.12500   0.91926   0.01267  Uiso   1.00
Fe5398 Fe    0.62500   0.12500   0.96613   0.01267  Uiso   1.00
Fe5399 Fe    0.62500   0.37500   0.91926   0.01267  Uiso   1.00
Fe5400 Fe    0.62500   0.37500   0.96613   0.01267  Uiso   1.00
Fe5401 Fe    0.87500   0.12500   0.91926   0.01267  Uiso   1.00
Fe5402 Fe    0.87500   0.12500   0.96613   0.01267  Uiso   1.00
Fe5403 Fe    0.87500   0.37500   0.91926   0.01267  Uiso   1.00
Fe5404 Fe    0.87500   0.37500   0.96613   0.01267  Uiso   1.00
Cr5405 Cr    0.18750   0.68750   0.90754   0.01267  Uiso   1.00
Cr5406 Cr    0.18750   0.68750   0.95441   0.01267  Uiso   1.00
Cr5407 Cr    0.18750   0.93750   0.90754   0.01267  Uiso   1.00
Cr5408 Cr    0.18750   0.93750   0.95441   0.01267  Uiso   1.00
Cr5409 Cr    0.43750   0.68750   0.90754   0.01267  Uiso   1.00
Cr5410 Cr    0.43750   0.68750   0.95441   0.01267  Uiso   1.00
Cr5411 Cr    0.43750   0.93750   0.90754   0.01267  Uiso   1.00
Cr5412 Cr    0.43750   0.93750   0.95441   0.01267  Uiso   1.00
Cr5413 Cr    0.06250   0.56250   0.90754   0.01267  Uiso   1.00
Cr5414 Cr    0.06250   0.56250   0.95441   0.01267  Uiso   1.00
Cr5415 Cr    0.06250   0.81250   0.90754   0.01267  Uiso   1.00
Cr5416 Cr    0.06250   0.81250   0.95441   0.01267  Uiso   1.00
Cr5417 Cr    0.31250   0.56250   0.90754   0.01267  Uiso   1.00
Cr5418 Cr    0.31250   0.56250   0.95441   0.01267  Uiso   1.00
Cr5419 Cr    0.31250   0.81250   0.90754   0.01267  Uiso   1.00
Cr5420 Cr    0.31250   0.81250   0.95441   0.01267  Uiso   1.00
Cr5421 Cr    0.06250   0.68750   0.93098   0.01267  Uiso   1.00
Cr5422 Cr    0.06250   0.68750   0.97785   0.01267  Uiso   1.00
Cr5423 Cr    0.06250   0.93750   0.93098   0.01267  Uiso   1.00
Cr5424 Cr    0.06250   0.93750   0.97785   0.01267  Uiso   1.00
Cr5425 Cr    0.31250   0.68750   0.93098   0.01267  Uiso   1.00
Cr5426 Cr    0.31250   0.68750   0.97785   0.01267  Uiso   1.00
Cr5427 Cr    0.31250   0.93750   0.93098   0.01267  Uiso   1.00
Cr5428 Cr    0.31250   0.93750   0.97785   0.01267  Uiso   1.00
Cr5429 Cr    0.18750   0.56250   0.93098   0.01267  Uiso   1.00
Cr5430 Cr    0.18750   0.56250   0.97785   0.01267  Uiso   1.00
Cr5431 Cr    0.18750   0.81250   0.93098   0.01267  Uiso   1.00
Cr5432 Cr    0.18750   0.81250   0.97785   0.01267  Uiso   1.00
Cr5433 Cr    0.43750   0.56250   0.93098   0.01267  Uiso   1.00
Cr5434 Cr    0.43750   0.56250   0.97785   0.01267  Uiso   1.00
Cr5435 Cr    0.43750   0.81250   0.93098   0.01267  Uiso   1.00
Cr5436 Cr    0.43750   0.81250   0.97785   0.01267  Uiso   1.00
Fe5437 Fe    0.18750   0.56250   0.90754   0.01267  Uiso   1.00
Fe5438 Fe    0.18750   0.56250   0.95441   0.01267  Uiso   1.00
Fe5439 Fe    0.18750   0.81250   0.90754   0.01267  Uiso   1.00
Fe5440 Fe    0.18750   0.81250   0.95441   0.01267  Uiso   1.00
Fe5441 Fe    0.43750   0.56250   0.90754   0.01267  Uiso   1.00
Fe5442 Fe    0.43750   0.56250   0.95441   0.01267  Uiso   1.00
Fe5443 Fe    0.43750   0.81250   0.90754   0.01267  Uiso   1.00
Fe5444 Fe    0.43750   0.81250   0.95441   0.01267  Uiso   1.00
Fe5445 Fe    0.06250   0.68750   0.90754   0.01267  Uiso   1.00
Fe5446 Fe    0.06250   0.68750   0.95441   0.01267  Uiso   1.00
Fe5447 Fe    0.06250   0.93750   0.90754   0.01267  Uiso   1.00
Fe5448 Fe    0.06250   0.93750   0.95441   0.01267  Uiso   1.00
Fe5449 Fe    0.31250   0.68750   0.90754   0.01267  Uiso   1.00
Fe5450 Fe    0.31250   0.68750   0.95441   0.01267  Uiso   1.00
Fe5451 Fe    0.31250   0.93750   0.90754   0.01267  Uiso   1.00
Fe5452 Fe    0.31250   0.93750   0.95441   0.01267  Uiso   1.00
Fe5453 Fe    0.00000   0.50000   0.89582   0.01267  Uiso   1.00
Fe5454 Fe    0.00000   0.50000   0.94269   0.01267  Uiso   1.00
Fe5455 Fe    0.00000   0.75000   0.89582   0.01267  Uiso   1.00
Fe5456 Fe    0.00000   0.75000   0.94269   0.01267  Uiso   1.00
Fe5457 Fe    0.25000   0.50000   0.89582   0.01267  Uiso   1.00
Fe5458 Fe    0.25000   0.50000   0.94269   0.01267  Uiso   1.00
Fe5459 Fe    0.25000   0.75000   0.89582   0.01267  Uiso   1.00
Fe5460 Fe    0.25000   0.75000   0.94269   0.01267  Uiso   1.00
Fe5461 Fe    0.12500   0.62500   0.89582   0.01267  Uiso   1.00
Fe5462 Fe    0.12500   0.62500   0.94269   0.01267  Uiso   1.00
Fe5463 Fe    0.12500   0.87500   0.89582   0.01267  Uiso   1.00
Fe5464 Fe    0.12500   0.87500   0.94269   0.01267  Uiso   1.00
Fe5465 Fe    0.37500   0.62500   0.89582   0.01267  Uiso   1.00
Fe5466 Fe    0.37500   0.62500   0.94269   0.01267  Uiso   1.00
Fe5467 Fe    0.37500   0.87500   0.89582   0.01267  Uiso   1.00
Fe5468 Fe    0.37500   0.87500   0.94269   0.01267  Uiso   1.00
Fe5469 Fe    0.12500   0.50000   0.91926   0.01267  Uiso   1.00
Fe5470 Fe    0.12500   0.50000   0.96613   0.01267  Uiso   1.00
Fe5471 Fe    0.12500   0.75000   0.91926   0.01267  Uiso   1.00
Fe5472 Fe    0.12500   0.75000   0.96613   0.01267  Uiso   1.00
Fe5473 Fe    0.37500   0.50000   0.91926   0.01267  Uiso   1.00
Fe5474 Fe    0.37500   0.50000   0.96613   0.01267  Uiso   1.00
Fe5475 Fe    0.37500   0.75000   0.91926   0.01267  Uiso   1.00
Fe5476 Fe    0.37500   0.75000   0.96613   0.01267  Uiso   1.00
Fe5477 Fe    0.00000   0.62500   0.91926   0.01267  Uiso   1.00
Fe5478 Fe    0.00000   0.62500   0.96613   0.01267  Uiso   1.00
Fe5479 Fe    0.00000   0.87500   0.91926   0.01267  Uiso   1.00
Fe5480 Fe    0.00000   0.87500   0.96613   0.01267  Uiso   1.00
Fe5481 Fe    0.25000   0.62500   0.91926   0.01267  Uiso   1.00
Fe5482 Fe    0.25000   0.62500   0.96613   0.01267  Uiso   1.00
Fe5483 Fe    0.25000   0.87500   0.91926   0.01267  Uiso   1.00
Fe5484 Fe    0.25000   0.87500   0.96613   0.01267  Uiso   1.00
Fe5485 Fe    0.18750   0.68750   0.93098   0.01267  Uiso   1.00
Fe5486 Fe    0.18750   0.68750   0.97785   0.01267  Uiso   1.00
Fe5487 Fe    0.18750   0.93750   0.93098   0.01267  Uiso   1.00
Fe5488 Fe    0.18750   0.93750   0.97785   0.01267  Uiso   1.00
Fe5489 Fe    0.43750   0.68750   0.93098   0.01267  Uiso   1.00
Fe5490 Fe    0.43750   0.68750   0.97785   0.01267  Uiso   1.00
Fe5491 Fe    0.43750   0.93750   0.93098   0.01267  Uiso   1.00
Fe5492 Fe    0.43750   0.93750   0.97785   0.01267  Uiso   1.00
Fe5493 Fe    0.06250   0.56250   0.93098   0.01267  Uiso   1.00
Fe5494 Fe    0.06250   0.56250   0.97785   0.01267  Uiso   1.00
Fe5495 Fe    0.06250   0.81250   0.93098   0.01267  Uiso   1.00
Fe5496 Fe    0.06250   0.81250   0.97785   0.01267  Uiso   1.00
Fe5497 Fe    0.31250   0.56250   0.93098   0.01267  Uiso   1.00
Fe5498 Fe    0.31250   0.56250   0.97785   0.01267  Uiso   1.00
Fe5499 Fe    0.31250   0.81250   0.93098   0.01267  Uiso   1.00
Fe5500 Fe    0.31250   0.81250   0.97785   0.01267  Uiso   1.00
Fe5501 Fe    0.00000   0.50000   0.91926   0.01267  Uiso   1.00
Fe5502 Fe    0.00000   0.50000   0.96613   0.01267  Uiso   1.00
Fe5503 Fe    0.00000   0.75000   0.91926   0.01267  Uiso   1.00
Fe5504 Fe    0.00000   0.75000   0.96613   0.01267  Uiso   1.00
Fe5505 Fe    0.25000   0.50000   0.91926   0.01267  Uiso   1.00
Fe5506 Fe    0.25000   0.50000   0.96613   0.01267  Uiso   1.00
Fe5507 Fe    0.25000   0.75000   0.91926   0.01267  Uiso   1.00
Fe5508 Fe    0.25000   0.75000   0.96613   0.01267  Uiso   1.00
Fe5509 Fe    0.12500   0.50000   0.89582   0.01267  Uiso   1.00
Fe5510 Fe    0.12500   0.50000   0.94269   0.01267  Uiso   1.00
Fe5511 Fe    0.12500   0.75000   0.89582   0.01267  Uiso   1.00
Fe5512 Fe    0.12500   0.75000   0.94269   0.01267  Uiso   1.00
Fe5513 Fe    0.37500   0.50000   0.89582   0.01267  Uiso   1.00
Fe5514 Fe    0.37500   0.50000   0.94269   0.01267  Uiso   1.00
Fe5515 Fe    0.37500   0.75000   0.89582   0.01267  Uiso   1.00
Fe5516 Fe    0.37500   0.75000   0.94269   0.01267  Uiso   1.00
Fe5517 Fe    0.00000   0.62500   0.89582   0.01267  Uiso   1.00
Fe5518 Fe    0.00000   0.62500   0.94269   0.01267  Uiso   1.00
Fe5519 Fe    0.00000   0.87500   0.89582   0.01267  Uiso   1.00
Fe5520 Fe    0.00000   0.87500   0.94269   0.01267  Uiso   1.00
Fe5521 Fe    0.25000   0.62500   0.89582   0.01267  Uiso   1.00
Fe5522 Fe    0.25000   0.62500   0.94269   0.01267  Uiso   1.00
Fe5523 Fe    0.25000   0.87500   0.89582   0.01267  Uiso   1.00
Fe5524 Fe    0.25000   0.87500   0.94269   0.01267  Uiso   1.00
Fe5525 Fe    0.12500   0.62500   0.91926   0.01267  Uiso   1.00
Fe5526 Fe    0.12500   0.62500   0.96613   0.01267  Uiso   1.00
Fe5527 Fe    0.12500   0.87500   0.91926   0.01267  Uiso   1.00
Fe5528 Fe    0.12500   0.87500   0.96613   0.01267  Uiso   1.00
Fe5529 Fe    0.37500   0.62500   0.91926   0.01267  Uiso   1.00
Fe5530 Fe    0.37500   0.62500   0.96613   0.01267  Uiso   1.00
Fe5531 Fe    0.37500   0.87500   0.91926   0.01267  Uiso   1.00
Fe5532 Fe    0.37500   0.87500   0.96613   0.01267  Uiso   1.00
Cr5533 Cr    0.68750   0.68750   0.90754   0.01267  Uiso   1.00
Cr5534 Cr    0.68750   0.68750   0.95441   0.01267  Uiso   1.00
Cr5535 Cr    0.68750   0.93750   0.90754   0.01267  Uiso   1.00
Cr5536 Cr    0.68750   0.93750   0.95441   0.01267  Uiso   1.00
Cr5537 Cr    0.93750   0.68750   0.90754   0.01267  Uiso   1.00
Cr5538 Cr    0.93750   0.68750   0.95441   0.01267  Uiso   1.00
Cr5539 Cr    0.93750   0.93750   0.90754   0.01267  Uiso   1.00
Cr5540 Cr    0.93750   0.93750   0.95441   0.01267  Uiso   1.00
Cr5541 Cr    0.56250   0.56250   0.90754   0.01267  Uiso   1.00
Cr5542 Cr    0.56250   0.56250   0.95441   0.01267  Uiso   1.00
Cr5543 Cr    0.56250   0.81250   0.90754   0.01267  Uiso   1.00
Cr5544 Cr    0.56250   0.81250   0.95441   0.01267  Uiso   1.00
Cr5545 Cr    0.81250   0.56250   0.90754   0.01267  Uiso   1.00
Cr5546 Cr    0.81250   0.56250   0.95441   0.01267  Uiso   1.00
Cr5547 Cr    0.81250   0.81250   0.90754   0.01267  Uiso   1.00
Cr5548 Cr    0.81250   0.81250   0.95441   0.01267  Uiso   1.00
Cr5549 Cr    0.56250   0.68750   0.93098   0.01267  Uiso   1.00
Cr5550 Cr    0.56250   0.68750   0.97785   0.01267  Uiso   1.00
Cr5551 Cr    0.56250   0.93750   0.93098   0.01267  Uiso   1.00
Cr5552 Cr    0.56250   0.93750   0.97785   0.01267  Uiso   1.00
Cr5553 Cr    0.81250   0.68750   0.93098   0.01267  Uiso   1.00
Cr5554 Cr    0.81250   0.68750   0.97785   0.01267  Uiso   1.00
Cr5555 Cr    0.81250   0.93750   0.93098   0.01267  Uiso   1.00
Cr5556 Cr    0.81250   0.93750   0.97785   0.01267  Uiso   1.00
Cr5557 Cr    0.68750   0.56250   0.93098   0.01267  Uiso   1.00
Cr5558 Cr    0.68750   0.56250   0.97785   0.01267  Uiso   1.00
Cr5559 Cr    0.68750   0.81250   0.93098   0.01267  Uiso   1.00
Cr5560 Cr    0.68750   0.81250   0.97785   0.01267  Uiso   1.00
Cr5561 Cr    0.93750   0.56250   0.93098   0.01267  Uiso   1.00
Cr5562 Cr    0.93750   0.56250   0.97785   0.01267  Uiso   1.00
Cr5563 Cr    0.93750   0.81250   0.93098   0.01267  Uiso   1.00
Cr5564 Cr    0.93750   0.81250   0.97785   0.01267  Uiso   1.00
Fe5565 Fe    0.68750   0.56250   0.90754   0.01267  Uiso   1.00
Fe5566 Fe    0.68750   0.56250   0.95441   0.01267  Uiso   1.00
Fe5567 Fe    0.68750   0.81250   0.90754   0.01267  Uiso   1.00
Fe5568 Fe    0.68750   0.81250   0.95441   0.01267  Uiso   1.00
Fe5569 Fe    0.93750   0.56250   0.90754   0.01267  Uiso   1.00
Fe5570 Fe    0.93750   0.56250   0.95441   0.01267  Uiso   1.00
Fe5571 Fe    0.93750   0.81250   0.90754   0.01267  Uiso   1.00
Fe5572 Fe    0.93750   0.81250   0.95441   0.01267  Uiso   1.00
Fe5573 Fe    0.56250   0.68750   0.90754   0.01267  Uiso   1.00
Fe5574 Fe    0.56250   0.68750   0.95441   0.01267  Uiso   1.00
Fe5575 Fe    0.56250   0.93750   0.90754   0.01267  Uiso   1.00
Fe5576 Fe    0.56250   0.93750   0.95441   0.01267  Uiso   1.00
Fe5577 Fe    0.81250   0.68750   0.90754   0.01267  Uiso   1.00
Fe5578 Fe    0.81250   0.68750   0.95441   0.01267  Uiso   1.00
Fe5579 Fe    0.81250   0.93750   0.90754   0.01267  Uiso   1.00
Fe5580 Fe    0.81250   0.93750   0.95441   0.01267  Uiso   1.00
Fe5581 Fe    0.50000   0.50000   0.89582   0.01267  Uiso   1.00
Fe5582 Fe    0.50000   0.50000   0.94269   0.01267  Uiso   1.00
Fe5583 Fe    0.50000   0.75000   0.89582   0.01267  Uiso   1.00
Fe5584 Fe    0.50000   0.75000   0.94269   0.01267  Uiso   1.00
Fe5585 Fe    0.75000   0.50000   0.89582   0.01267  Uiso   1.00
Fe5586 Fe    0.75000   0.50000   0.94269   0.01267  Uiso   1.00
Fe5587 Fe    0.75000   0.75000   0.89582   0.01267  Uiso   1.00
Fe5588 Fe    0.75000   0.75000   0.94269   0.01267  Uiso   1.00
Fe5589 Fe    0.62500   0.62500   0.89582   0.01267  Uiso   1.00
Fe5590 Fe    0.62500   0.62500   0.94269   0.01267  Uiso   1.00
Fe5591 Fe    0.62500   0.87500   0.89582   0.01267  Uiso   1.00
Fe5592 Fe    0.62500   0.87500   0.94269   0.01267  Uiso   1.00
Fe5593 Fe    0.87500   0.62500   0.89582   0.01267  Uiso   1.00
Fe5594 Fe    0.87500   0.62500   0.94269   0.01267  Uiso   1.00
Fe5595 Fe    0.87500   0.87500   0.89582   0.01267  Uiso   1.00
Fe5596 Fe    0.87500   0.87500   0.94269   0.01267  Uiso   1.00
Fe5597 Fe    0.62500   0.50000   0.91926   0.01267  Uiso   1.00
Fe5598 Fe    0.62500   0.50000   0.96613   0.01267  Uiso   1.00
Fe5599 Fe    0.62500   0.75000   0.91926   0.01267  Uiso   1.00
Fe5600 Fe    0.62500   0.75000   0.96613   0.01267  Uiso   1.00
Fe5601 Fe    0.87500   0.50000   0.91926   0.01267  Uiso   1.00
Fe5602 Fe    0.87500   0.50000   0.96613   0.01267  Uiso   1.00
Fe5603 Fe    0.87500   0.75000   0.91926   0.01267  Uiso   1.00
Fe5604 Fe    0.87500   0.75000   0.96613   0.01267  Uiso   1.00
Fe5605 Fe    0.50000   0.62500   0.91926   0.01267  Uiso   1.00
Fe5606 Fe    0.50000   0.62500   0.96613   0.01267  Uiso   1.00
Fe5607 Fe    0.50000   0.87500   0.91926   0.01267  Uiso   1.00
Fe5608 Fe    0.50000   0.87500   0.96613   0.01267  Uiso   1.00
Fe5609 Fe    0.75000   0.62500   0.91926   0.01267  Uiso   1.00
Fe5610 Fe    0.75000   0.62500   0.96613   0.01267  Uiso   1.00
Fe5611 Fe    0.75000   0.87500   0.91926   0.01267  Uiso   1.00
Fe5612 Fe    0.75000   0.87500   0.96613   0.01267  Uiso   1.00
Fe5613 Fe    0.68750   0.68750   0.93098   0.01267  Uiso   1.00
Fe5614 Fe    0.68750   0.68750   0.97785   0.01267  Uiso   1.00
Fe5615 Fe    0.68750   0.93750   0.93098   0.01267  Uiso   1.00
Fe5616 Fe    0.68750   0.93750   0.97785   0.01267  Uiso   1.00
Fe5617 Fe    0.93750   0.68750   0.93098   0.01267  Uiso   1.00
Fe5618 Fe    0.93750   0.68750   0.97785   0.01267  Uiso   1.00
Fe5619 Fe    0.93750   0.93750   0.93098   0.01267  Uiso   1.00
Fe5620 Fe    0.93750   0.93750   0.97785   0.01267  Uiso   1.00
Fe5621 Fe    0.56250   0.56250   0.93098   0.01267  Uiso   1.00
Fe5622 Fe    0.56250   0.56250   0.97785   0.01267  Uiso   1.00
Fe5623 Fe    0.56250   0.81250   0.93098   0.01267  Uiso   1.00
Fe5624 Fe    0.56250   0.81250   0.97785   0.01267  Uiso   1.00
Fe5625 Fe    0.81250   0.56250   0.93098   0.01267  Uiso   1.00
Fe5626 Fe    0.81250   0.56250   0.97785   0.01267  Uiso   1.00
Fe5627 Fe    0.81250   0.81250   0.93098   0.01267  Uiso   1.00
Fe5628 Fe    0.81250   0.81250   0.97785   0.01267  Uiso   1.00
Fe5629 Fe    0.50000   0.50000   0.91926   0.01267  Uiso   1.00
Fe5630 Fe    0.50000   0.50000   0.96613   0.01267  Uiso   1.00
Fe5631 Fe    0.50000   0.75000   0.91926   0.01267  Uiso   1.00
Fe5632 Fe    0.50000   0.75000   0.96613   0.01267  Uiso   1.00
Fe5633 Fe    0.75000   0.50000   0.91926   0.01267  Uiso   1.00
Fe5634 Fe    0.75000   0.50000   0.96613   0.01267  Uiso   1.00
Fe5635 Fe    0.75000   0.75000   0.91926   0.01267  Uiso   1.00
Fe5636 Fe    0.75000   0.75000   0.96613   0.01267  Uiso   1.00
Fe5637 Fe    0.62500   0.50000   0.89582   0.01267  Uiso   1.00
Fe5638 Fe    0.62500   0.50000   0.94269   0.01267  Uiso   1.00
Fe5639 Fe    0.62500   0.75000   0.89582   0.01267  Uiso   1.00
Fe5640 Fe    0.62500   0.75000   0.94269   0.01267  Uiso   1.00
Fe5641 Fe    0.87500   0.50000   0.89582   0.01267  Uiso   1.00
Fe5642 Fe    0.87500   0.50000   0.94269   0.01267  Uiso   1.00
Fe5643 Fe    0.87500   0.75000   0.89582   0.01267  Uiso   1.00
Fe5644 Fe    0.87500   0.75000   0.94269   0.01267  Uiso   1.00
Fe5645 Fe    0.50000   0.62500   0.89582   0.01267  Uiso   1.00
Fe5646 Fe    0.50000   0.62500   0.94269   0.01267  Uiso   1.00
Fe5647 Fe    0.50000   0.87500   0.89582   0.01267  Uiso   1.00
Fe5648 Fe    0.50000   0.87500   0.94269   0.01267  Uiso   1.00
Fe5649 Fe    0.75000   0.62500   0.89582   0.01267  Uiso   1.00
Fe5650 Fe    0.75000   0.62500   0.94269   0.01267  Uiso   1.00
Fe5651 Fe    0.75000   0.87500   0.89582   0.01267  Uiso   1.00
Fe5652 Fe    0.75000   0.87500   0.94269   0.01267  Uiso   1.00
Fe5653 Fe    0.62500   0.62500   0.91926   0.01267  Uiso   1.00
Fe5654 Fe    0.62500   0.62500   0.96613   0.01267  Uiso   1.00
Fe5655 Fe    0.62500   0.87500   0.91926   0.01267  Uiso   1.00
Fe5656 Fe    0.62500   0.87500   0.96613   0.01267  Uiso   1.00
Fe5657 Fe    0.87500   0.62500   0.91926   0.01267  Uiso   1.00
Fe5658 Fe    0.87500   0.62500   0.96613   0.01267  Uiso   1.00
Fe5659 Fe    0.87500   0.87500   0.91926   0.01267  Uiso   1.00
Fe5660 Fe    0.87500   0.87500   0.96613   0.01267  Uiso   1.00
