data_Cr2O3-Fe
_audit_creation_date              2020-03-04
_audit_creation_method            'Materials Studio'
_symmetry_space_group_name_H-M    'P1'
_symmetry_Int_Tables_number       1
_symmetry_cell_setting            triclinic
loop_
_symmetry_equiv_pos_as_xyz
  x,y,z
_cell_length_a                    27.8281
_cell_length_b                    20.1251
_cell_length_c                    35.2972
_cell_angle_alpha                 90.0000
_cell_angle_beta                  90.0000
_cell_angle_gamma                 90.0000
loop_
_atom_site_label
_atom_site_type_symbol
_atom_site_fract_x
_atom_site_fract_y
_atom_site_fract_z
_atom_site_U_iso_or_equiv
_atom_site_adp_type
_atom_site_occupancy
Cr1    Cr    0.15918   0.12500   0.44890   0.00000  Uiso   1.00
Cr2    Cr    0.09082  -0.00000   0.40775   0.00000  Uiso   1.00
Cr3    Cr    0.00749   0.12500   0.44890   0.00000  Uiso   1.00
Cr4    Cr    0.07585   0.00000   0.49005   0.00000  Uiso   1.00
Cr5    Cr    0.32585   0.00000   0.49005   0.00000  Uiso   1.00
Cr6    Cr    0.25749   0.12500   0.44890   0.00000  Uiso   1.00
Cr7    Cr    0.17415   0.00000   0.49005   0.00000  Uiso   1.00
Cr8    Cr    0.24251  -0.00000   0.40775   0.00000  Uiso   1.00
Cr9    Cr    0.49251  -0.00000   0.40775   0.00000  Uiso   1.00
Cr10   Cr    0.42415   0.00000   0.49005   0.00000  Uiso   1.00
Cr11   Cr    0.34082  -0.00000   0.40775   0.00000  Uiso   1.00
Cr12   Cr    0.40918   0.12500   0.44890   0.00000  Uiso   1.00
O13    O     0.12500   0.96211   0.45263   0.00000  Uiso   1.00
O14    O     0.04167   0.92422   0.40775   0.00000  Uiso   1.00
O15    O     0.04167   0.03789   0.44517   0.00000  Uiso   1.00
O16    O     0.04167   0.03789   0.37033   0.00000  Uiso   1.00
O17    O     0.12500   0.07578   0.49005   0.00000  Uiso   1.00
O18    O     0.12500   0.08711   0.40402   0.00000  Uiso   1.00
O19    O     0.29167   0.96211   0.37033   0.00000  Uiso   1.00
O20    O     0.20833   0.04922   0.44890   0.00000  Uiso   1.00
O21    O     0.20833   0.16289   0.48632   0.00000  Uiso   1.00
O22    O     0.20833   0.16289   0.41148   0.00000  Uiso   1.00
O23    O     0.29167   0.07578   0.40775   0.00000  Uiso   1.00
O24    O     0.29167   0.96211   0.44517   0.00000  Uiso   1.00
O25    O     0.45833   0.08711   0.41148   0.00000  Uiso   1.00
O26    O     0.37500   0.17422   0.49005   0.00000  Uiso   1.00
O27    O     0.37500   0.91289   0.40402   0.00000  Uiso   1.00
O28    O     0.37500   0.03789   0.45263   0.00000  Uiso   1.00
O29    O     0.45833   0.20078   0.44890   0.00000  Uiso   1.00
O30    O     0.45833   0.08711   0.48632   0.00000  Uiso   1.00
Cr31   Cr    0.15918   0.00000   0.32545   0.00000  Uiso   1.00
Cr32   Cr    0.09082   0.87500   0.28431   0.00000  Uiso   1.00
Cr33   Cr    0.00749   0.00000   0.32545   0.00000  Uiso   1.00
Cr34   Cr    0.07585   0.87500   0.36660   0.00000  Uiso   1.00
Cr35   Cr    0.32585   0.87500   0.36660   0.00000  Uiso   1.00
Cr36   Cr    0.25749   0.00000   0.32545   0.00000  Uiso   1.00
Cr37   Cr    0.17415   0.87500   0.36660   0.00000  Uiso   1.00
Cr38   Cr    0.24251   0.87500   0.28431   0.00000  Uiso   1.00
Cr39   Cr    0.49251   0.87500   0.28431   0.00000  Uiso   1.00
Cr40   Cr    0.42415   0.87500   0.36660   0.00000  Uiso   1.00
Cr41   Cr    0.34082   0.87500   0.28431   0.00000  Uiso   1.00
Cr42   Cr    0.40918   0.00000   0.32545   0.00000  Uiso   1.00
O43    O     0.12500   0.83711   0.32918   0.00000  Uiso   1.00
O44    O     0.04167   0.79922   0.28431   0.00000  Uiso   1.00
O45    O     0.04167   0.91289   0.32172   0.00000  Uiso   1.00
O46    O     0.04167   0.91289   0.24689   0.00000  Uiso   1.00
O47    O     0.12500   0.95078   0.36660   0.00000  Uiso   1.00
O48    O     0.12500   0.96211   0.28058   0.00000  Uiso   1.00
O49    O     0.29167   0.83711   0.24689   0.00000  Uiso   1.00
O50    O     0.20833   0.92422   0.32545   0.00000  Uiso   1.00
O51    O     0.20833   0.03789   0.36287   0.00000  Uiso   1.00
O52    O     0.20833   0.03789   0.28803   0.00000  Uiso   1.00
O53    O     0.29167   0.95078   0.28431   0.00000  Uiso   1.00
O54    O     0.29167   0.83711   0.32172   0.00000  Uiso   1.00
O55    O     0.45833   0.96211   0.28803   0.00000  Uiso   1.00
O56    O     0.37500   0.04922   0.36660   0.00000  Uiso   1.00
O57    O     0.37500   0.78789   0.28058   0.00000  Uiso   1.00
O58    O     0.37500   0.91289   0.32918   0.00000  Uiso   1.00
O59    O     0.45833   0.07578   0.32545   0.00000  Uiso   1.00
O60    O     0.45833   0.96211   0.36287   0.00000  Uiso   1.00
Cr61   Cr    0.15918   0.87500   0.20201   0.00000  Uiso   1.00
Cr62   Cr    0.09082   0.75000   0.16086   0.00000  Uiso   1.00
Cr63   Cr    0.00749   0.87500   0.20201   0.00000  Uiso   1.00
Cr64   Cr    0.07585   0.75000   0.24316   0.00000  Uiso   1.00
Cr65   Cr    0.32585   0.75000   0.24316   0.00000  Uiso   1.00
Cr66   Cr    0.25749   0.87500   0.20201   0.00000  Uiso   1.00
Cr67   Cr    0.17415   0.75000   0.24316   0.00000  Uiso   1.00
Cr68   Cr    0.24251   0.75000   0.16086   0.00000  Uiso   1.00
Cr69   Cr    0.49251   0.75000   0.16086   0.00000  Uiso   1.00
Cr70   Cr    0.42415   0.75000   0.24316   0.00000  Uiso   1.00
Cr71   Cr    0.34082   0.75000   0.16086   0.00000  Uiso   1.00
Cr72   Cr    0.40918   0.87500   0.20201   0.00000  Uiso   1.00
O73    O     0.12500   0.71211   0.20574   0.00000  Uiso   1.00
O74    O     0.04167   0.67422   0.16086   0.00000  Uiso   1.00
O75    O     0.04167   0.78789   0.19828   0.00000  Uiso   1.00
O76    O     0.04167   0.78789   0.12344   0.00000  Uiso   1.00
O77    O     0.12500   0.82578   0.24316   0.00000  Uiso   1.00
O78    O     0.12500   0.83711   0.15713   0.00000  Uiso   1.00
O79    O     0.29167   0.71211   0.12344   0.00000  Uiso   1.00
O80    O     0.20833   0.79922   0.20201   0.00000  Uiso   1.00
O81    O     0.20833   0.91289   0.23943   0.00000  Uiso   1.00
O82    O     0.20833   0.91289   0.16459   0.00000  Uiso   1.00
O83    O     0.29167   0.82578   0.16086   0.00000  Uiso   1.00
O84    O     0.29167   0.71211   0.19828   0.00000  Uiso   1.00
O85    O     0.45833   0.83711   0.16459   0.00000  Uiso   1.00
O86    O     0.37500   0.92422   0.24316   0.00000  Uiso   1.00
O87    O     0.37500   0.66289   0.15713   0.00000  Uiso   1.00
O88    O     0.37500   0.78789   0.20574   0.00000  Uiso   1.00
O89    O     0.45833   0.95078   0.20201   0.00000  Uiso   1.00
O90    O     0.45833   0.83711   0.23943   0.00000  Uiso   1.00
Cr91   Cr    0.15918   0.75000   0.07857   0.00000  Uiso   1.00
Cr92   Cr    0.09082   0.62500   0.03742   0.00000  Uiso   1.00
Cr93   Cr    0.00749   0.75000   0.07857   0.00000  Uiso   1.00
Cr94   Cr    0.07585   0.62500   0.11971   0.00000  Uiso   1.00
Cr95   Cr    0.32585   0.62500   0.11971   0.00000  Uiso   1.00
Cr96   Cr    0.25749   0.75000   0.07857   0.00000  Uiso   1.00
Cr97   Cr    0.17415   0.62500   0.11971   0.00000  Uiso   1.00
Cr98   Cr    0.24251   0.62500   0.03742   0.00000  Uiso   1.00
Cr99   Cr    0.49251   0.62500   0.03742   0.00000  Uiso   1.00
Cr100  Cr    0.42415   0.62500   0.11971   0.00000  Uiso   1.00
Cr101  Cr    0.34082   0.62500   0.03742   0.00000  Uiso   1.00
Cr102  Cr    0.40918   0.75000   0.07857   0.00000  Uiso   1.00
O103   O     0.12500   0.58711   0.08230   0.00000  Uiso   1.00
O104   O     0.04167   0.54922   0.03742   0.00000  Uiso   1.00
O105   O     0.04167   0.66289   0.07484   0.00000  Uiso   1.00
O106   O     0.04167   0.66289   0.00000   0.00000  Uiso   1.00
O107   O     0.12500   0.70078   0.11971   0.00000  Uiso   1.00
O108   O     0.12500   0.71211   0.03369   0.00000  Uiso   1.00
O109   O     0.29167   0.58711   0.00000   0.00000  Uiso   1.00
O110   O     0.20833   0.67422   0.07857   0.00000  Uiso   1.00
O111   O     0.20833   0.78789   0.11599   0.00000  Uiso   1.00
O112   O     0.20833   0.78789   0.04115   0.00000  Uiso   1.00
O113   O     0.29167   0.70078   0.03742   0.00000  Uiso   1.00
O114   O     0.29167   0.58711   0.07484   0.00000  Uiso   1.00
O115   O     0.45833   0.71211   0.04115   0.00000  Uiso   1.00
O116   O     0.37500   0.79922   0.11971   0.00000  Uiso   1.00
O117   O     0.37500   0.53789   0.03369   0.00000  Uiso   1.00
O118   O     0.37500   0.66289   0.08230   0.00000  Uiso   1.00
O119   O     0.45833   0.82578   0.07857   0.00000  Uiso   1.00
O120   O     0.45833   0.71211   0.11599   0.00000  Uiso   1.00
Cr121  Cr    0.15918   0.37500   0.44890   0.00000  Uiso   1.00
Cr122  Cr    0.09082   0.25000   0.40775   0.00000  Uiso   1.00
Cr123  Cr    0.00749   0.37500   0.44890   0.00000  Uiso   1.00
Cr124  Cr    0.07585   0.25000   0.49005   0.00000  Uiso   1.00
Cr125  Cr    0.32585   0.25000   0.49005   0.00000  Uiso   1.00
Cr126  Cr    0.25749   0.37500   0.44890   0.00000  Uiso   1.00
Cr127  Cr    0.17415   0.25000   0.49005   0.00000  Uiso   1.00
Cr128  Cr    0.24251   0.25000   0.40775   0.00000  Uiso   1.00
Cr129  Cr    0.49251   0.25000   0.40775   0.00000  Uiso   1.00
Cr130  Cr    0.42415   0.25000   0.49005   0.00000  Uiso   1.00
Cr131  Cr    0.34082   0.25000   0.40775   0.00000  Uiso   1.00
Cr132  Cr    0.40918   0.37500   0.44890   0.00000  Uiso   1.00
O133   O     0.12500   0.21211   0.45263   0.00000  Uiso   1.00
O134   O     0.04167   0.17422   0.40775   0.00000  Uiso   1.00
O135   O     0.04167   0.28789   0.44517   0.00000  Uiso   1.00
O136   O     0.04167   0.28789   0.37033   0.00000  Uiso   1.00
O137   O     0.12500   0.32578   0.49005   0.00000  Uiso   1.00
O138   O     0.12500   0.33711   0.40402   0.00000  Uiso   1.00
O139   O     0.29167   0.21211   0.37033   0.00000  Uiso   1.00
O140   O     0.20833   0.29922   0.44890   0.00000  Uiso   1.00
O141   O     0.20833   0.41289   0.48632   0.00000  Uiso   1.00
O142   O     0.20833   0.41289   0.41148   0.00000  Uiso   1.00
O143   O     0.29167   0.32578   0.40775   0.00000  Uiso   1.00
O144   O     0.29167   0.21211   0.44517   0.00000  Uiso   1.00
O145   O     0.45833   0.33711   0.41148   0.00000  Uiso   1.00
O146   O     0.37500   0.42422   0.49005   0.00000  Uiso   1.00
O147   O     0.37500   0.16289   0.40402   0.00000  Uiso   1.00
O148   O     0.37500   0.28789   0.45263   0.00000  Uiso   1.00
O149   O     0.45833   0.45078   0.44890   0.00000  Uiso   1.00
O150   O     0.45833   0.33711   0.48632   0.00000  Uiso   1.00
Cr151  Cr    0.15918   0.25000   0.32545   0.00000  Uiso   1.00
Cr152  Cr    0.09082   0.12500   0.28431   0.00000  Uiso   1.00
Cr153  Cr    0.00749   0.25000   0.32545   0.00000  Uiso   1.00
Cr154  Cr    0.07585   0.12500   0.36660   0.00000  Uiso   1.00
Cr155  Cr    0.32585   0.12500   0.36660   0.00000  Uiso   1.00
Cr156  Cr    0.25749   0.25000   0.32545   0.00000  Uiso   1.00
Cr157  Cr    0.17415   0.12500   0.36660   0.00000  Uiso   1.00
Cr158  Cr    0.24251   0.12500   0.28431   0.00000  Uiso   1.00
Cr159  Cr    0.49251   0.12500   0.28431   0.00000  Uiso   1.00
Cr160  Cr    0.42415   0.12500   0.36660   0.00000  Uiso   1.00
Cr161  Cr    0.34082   0.12500   0.28431   0.00000  Uiso   1.00
Cr162  Cr    0.40918   0.25000   0.32545   0.00000  Uiso   1.00
O163   O     0.12500   0.08711   0.32918   0.00000  Uiso   1.00
O164   O     0.04167   0.04922   0.28431   0.00000  Uiso   1.00
O165   O     0.04167   0.16289   0.32172   0.00000  Uiso   1.00
O166   O     0.04167   0.16289   0.24689   0.00000  Uiso   1.00
O167   O     0.12500   0.20078   0.36660   0.00000  Uiso   1.00
O168   O     0.12500   0.21211   0.28058   0.00000  Uiso   1.00
O169   O     0.29167   0.08711   0.24689   0.00000  Uiso   1.00
O170   O     0.20833   0.17422   0.32545   0.00000  Uiso   1.00
O171   O     0.20833   0.28789   0.36287   0.00000  Uiso   1.00
O172   O     0.20833   0.28789   0.28803   0.00000  Uiso   1.00
O173   O     0.29167   0.20078   0.28431   0.00000  Uiso   1.00
O174   O     0.29167   0.08711   0.32172   0.00000  Uiso   1.00
O175   O     0.45833   0.21211   0.28803   0.00000  Uiso   1.00
O176   O     0.37500   0.29922   0.36660   0.00000  Uiso   1.00
O177   O     0.37500   0.03789   0.28058   0.00000  Uiso   1.00
O178   O     0.37500   0.16289   0.32918   0.00000  Uiso   1.00
O179   O     0.45833   0.32578   0.32545   0.00000  Uiso   1.00
O180   O     0.45833   0.21211   0.36287   0.00000  Uiso   1.00
Cr181  Cr    0.15918   0.12500   0.20201   0.00000  Uiso   1.00
Cr182  Cr    0.09082  -0.00000   0.16086   0.00000  Uiso   1.00
Cr183  Cr    0.00749   0.12500   0.20201   0.00000  Uiso   1.00
Cr184  Cr    0.07585   0.00000   0.24316   0.00000  Uiso   1.00
Cr185  Cr    0.32585   0.00000   0.24316   0.00000  Uiso   1.00
Cr186  Cr    0.25749   0.12500   0.20201   0.00000  Uiso   1.00
Cr187  Cr    0.17415   0.00000   0.24316   0.00000  Uiso   1.00
Cr188  Cr    0.24251  -0.00000   0.16086   0.00000  Uiso   1.00
Cr189  Cr    0.49251  -0.00000   0.16086   0.00000  Uiso   1.00
Cr190  Cr    0.42415   0.00000   0.24316   0.00000  Uiso   1.00
Cr191  Cr    0.34082  -0.00000   0.16086   0.00000  Uiso   1.00
Cr192  Cr    0.40918   0.12500   0.20201   0.00000  Uiso   1.00
O193   O     0.12500   0.96211   0.20574   0.00000  Uiso   1.00
O194   O     0.04167   0.92422   0.16086   0.00000  Uiso   1.00
O195   O     0.04167   0.03789   0.19828   0.00000  Uiso   1.00
O196   O     0.04167   0.03789   0.12344   0.00000  Uiso   1.00
O197   O     0.12500   0.07578   0.24316   0.00000  Uiso   1.00
O198   O     0.12500   0.08711   0.15713   0.00000  Uiso   1.00
O199   O     0.29167   0.96211   0.12344   0.00000  Uiso   1.00
O200   O     0.20833   0.04922   0.20201   0.00000  Uiso   1.00
O201   O     0.20833   0.16289   0.23943   0.00000  Uiso   1.00
O202   O     0.20833   0.16289   0.16459   0.00000  Uiso   1.00
O203   O     0.29167   0.07578   0.16086   0.00000  Uiso   1.00
O204   O     0.29167   0.96211   0.19828   0.00000  Uiso   1.00
O205   O     0.45833   0.08711   0.16459   0.00000  Uiso   1.00
O206   O     0.37500   0.17422   0.24316   0.00000  Uiso   1.00
O207   O     0.37500   0.91289   0.15713   0.00000  Uiso   1.00
O208   O     0.37500   0.03789   0.20574   0.00000  Uiso   1.00
O209   O     0.45833   0.20078   0.20201   0.00000  Uiso   1.00
O210   O     0.45833   0.08711   0.23943   0.00000  Uiso   1.00
Cr211  Cr    0.15918   0.00000   0.07857   0.00000  Uiso   1.00
Cr212  Cr    0.09082   0.87500   0.03742   0.00000  Uiso   1.00
Cr213  Cr    0.00749   0.00000   0.07857   0.00000  Uiso   1.00
Cr214  Cr    0.07585   0.87500   0.11971   0.00000  Uiso   1.00
Cr215  Cr    0.32585   0.87500   0.11971   0.00000  Uiso   1.00
Cr216  Cr    0.25749   0.00000   0.07857   0.00000  Uiso   1.00
Cr217  Cr    0.17415   0.87500   0.11971   0.00000  Uiso   1.00
Cr218  Cr    0.24251   0.87500   0.03742   0.00000  Uiso   1.00
Cr219  Cr    0.49251   0.87500   0.03742   0.00000  Uiso   1.00
Cr220  Cr    0.42415   0.87500   0.11971   0.00000  Uiso   1.00
Cr221  Cr    0.34082   0.87500   0.03742   0.00000  Uiso   1.00
Cr222  Cr    0.40918   0.00000   0.07857   0.00000  Uiso   1.00
O223   O     0.12500   0.83711   0.08230   0.00000  Uiso   1.00
O224   O     0.04167   0.79922   0.03742   0.00000  Uiso   1.00
O225   O     0.04167   0.91289   0.07484   0.00000  Uiso   1.00
O226   O     0.04167   0.91289   0.00000   0.00000  Uiso   1.00
O227   O     0.12500   0.95078   0.11971   0.00000  Uiso   1.00
O228   O     0.12500   0.96211   0.03369   0.00000  Uiso   1.00
O229   O     0.29167   0.83711   0.00000   0.00000  Uiso   1.00
O230   O     0.20833   0.92422   0.07857   0.00000  Uiso   1.00
O231   O     0.20833   0.03789   0.11599   0.00000  Uiso   1.00
O232   O     0.20833   0.03789   0.04115   0.00000  Uiso   1.00
O233   O     0.29167   0.95078   0.03742   0.00000  Uiso   1.00
O234   O     0.29167   0.83711   0.07484   0.00000  Uiso   1.00
O235   O     0.45833   0.96211   0.04115   0.00000  Uiso   1.00
O236   O     0.37500   0.04922   0.11971   0.00000  Uiso   1.00
O237   O     0.37500   0.78789   0.03369   0.00000  Uiso   1.00
O238   O     0.37500   0.91289   0.08230   0.00000  Uiso   1.00
O239   O     0.45833   0.07578   0.07857   0.00000  Uiso   1.00
O240   O     0.45833   0.96211   0.11599   0.00000  Uiso   1.00
Cr241  Cr    0.15918   0.62500   0.44890   0.00000  Uiso   1.00
Cr242  Cr    0.09082   0.50000   0.40775   0.00000  Uiso   1.00
Cr243  Cr    0.00749   0.62500   0.44890   0.00000  Uiso   1.00
Cr244  Cr    0.07585   0.50000   0.49005   0.00000  Uiso   1.00
Cr245  Cr    0.32585   0.50000   0.49005   0.00000  Uiso   1.00
Cr246  Cr    0.25749   0.62500   0.44890   0.00000  Uiso   1.00
Cr247  Cr    0.17415   0.50000   0.49005   0.00000  Uiso   1.00
Cr248  Cr    0.24251   0.50000   0.40775   0.00000  Uiso   1.00
Cr249  Cr    0.49251   0.50000   0.40775   0.00000  Uiso   1.00
Cr250  Cr    0.42415   0.50000   0.49005   0.00000  Uiso   1.00
Cr251  Cr    0.34082   0.50000   0.40775   0.00000  Uiso   1.00
Cr252  Cr    0.40918   0.62500   0.44890   0.00000  Uiso   1.00
O253   O     0.12500   0.46211   0.45263   0.00000  Uiso   1.00
O254   O     0.04167   0.42422   0.40775   0.00000  Uiso   1.00
O255   O     0.04167   0.53789   0.44517   0.00000  Uiso   1.00
O256   O     0.04167   0.53789   0.37033   0.00000  Uiso   1.00
O257   O     0.12500   0.57578   0.49005   0.00000  Uiso   1.00
O258   O     0.12500   0.58711   0.40402   0.00000  Uiso   1.00
O259   O     0.29167   0.46211   0.37033   0.00000  Uiso   1.00
O260   O     0.20833   0.54922   0.44890   0.00000  Uiso   1.00
O261   O     0.20833   0.66289   0.48632   0.00000  Uiso   1.00
O262   O     0.20833   0.66289   0.41148   0.00000  Uiso   1.00
O263   O     0.29167   0.57578   0.40775   0.00000  Uiso   1.00
O264   O     0.29167   0.46211   0.44517   0.00000  Uiso   1.00
O265   O     0.45833   0.58711   0.41148   0.00000  Uiso   1.00
O266   O     0.37500   0.67422   0.49005   0.00000  Uiso   1.00
O267   O     0.37500   0.41289   0.40402   0.00000  Uiso   1.00
O268   O     0.37500   0.53789   0.45263   0.00000  Uiso   1.00
O269   O     0.45833   0.70078   0.44890   0.00000  Uiso   1.00
O270   O     0.45833   0.58711   0.48632   0.00000  Uiso   1.00
Cr271  Cr    0.15918   0.50000   0.32545   0.00000  Uiso   1.00
Cr272  Cr    0.09082   0.37500   0.28431   0.00000  Uiso   1.00
Cr273  Cr    0.00749   0.50000   0.32545   0.00000  Uiso   1.00
Cr274  Cr    0.07585   0.37500   0.36660   0.00000  Uiso   1.00
Cr275  Cr    0.32585   0.37500   0.36660   0.00000  Uiso   1.00
Cr276  Cr    0.25749   0.50000   0.32545   0.00000  Uiso   1.00
Cr277  Cr    0.17415   0.37500   0.36660   0.00000  Uiso   1.00
Cr278  Cr    0.24251   0.37500   0.28431   0.00000  Uiso   1.00
Cr279  Cr    0.49251   0.37500   0.28431   0.00000  Uiso   1.00
Cr280  Cr    0.42415   0.37500   0.36660   0.00000  Uiso   1.00
Cr281  Cr    0.34082   0.37500   0.28431   0.00000  Uiso   1.00
Cr282  Cr    0.40918   0.50000   0.32545   0.00000  Uiso   1.00
O283   O     0.12500   0.33711   0.32918   0.00000  Uiso   1.00
O284   O     0.04167   0.29922   0.28431   0.00000  Uiso   1.00
O285   O     0.04167   0.41289   0.32172   0.00000  Uiso   1.00
O286   O     0.04167   0.41289   0.24689   0.00000  Uiso   1.00
O287   O     0.12500   0.45078   0.36660   0.00000  Uiso   1.00
O288   O     0.12500   0.46211   0.28058   0.00000  Uiso   1.00
O289   O     0.29167   0.33711   0.24689   0.00000  Uiso   1.00
O290   O     0.20833   0.42422   0.32545   0.00000  Uiso   1.00
O291   O     0.20833   0.53789   0.36287   0.00000  Uiso   1.00
O292   O     0.20833   0.53789   0.28803   0.00000  Uiso   1.00
O293   O     0.29167   0.45078   0.28431   0.00000  Uiso   1.00
O294   O     0.29167   0.33711   0.32172   0.00000  Uiso   1.00
O295   O     0.45833   0.46211   0.28803   0.00000  Uiso   1.00
O296   O     0.37500   0.54922   0.36660   0.00000  Uiso   1.00
O297   O     0.37500   0.28789   0.28058   0.00000  Uiso   1.00
O298   O     0.37500   0.41289   0.32918   0.00000  Uiso   1.00
O299   O     0.45833   0.57578   0.32545   0.00000  Uiso   1.00
O300   O     0.45833   0.46211   0.36287   0.00000  Uiso   1.00
Cr301  Cr    0.15918   0.37500   0.20201   0.00000  Uiso   1.00
Cr302  Cr    0.09082   0.25000   0.16086   0.00000  Uiso   1.00
Cr303  Cr    0.00749   0.37500   0.20201   0.00000  Uiso   1.00
Cr304  Cr    0.07585   0.25000   0.24316   0.00000  Uiso   1.00
Cr305  Cr    0.32585   0.25000   0.24316   0.00000  Uiso   1.00
Cr306  Cr    0.25749   0.37500   0.20201   0.00000  Uiso   1.00
Cr307  Cr    0.17415   0.25000   0.24316   0.00000  Uiso   1.00
Cr308  Cr    0.24251   0.25000   0.16086   0.00000  Uiso   1.00
Cr309  Cr    0.49251   0.25000   0.16086   0.00000  Uiso   1.00
Cr310  Cr    0.42415   0.25000   0.24316   0.00000  Uiso   1.00
Cr311  Cr    0.34082   0.25000   0.16086   0.00000  Uiso   1.00
Cr312  Cr    0.40918   0.37500   0.20201   0.00000  Uiso   1.00
O313   O     0.12500   0.21211   0.20574   0.00000  Uiso   1.00
O314   O     0.04167   0.17422   0.16086   0.00000  Uiso   1.00
O315   O     0.04167   0.28789   0.19828   0.00000  Uiso   1.00
O316   O     0.04167   0.28789   0.12344   0.00000  Uiso   1.00
O317   O     0.12500   0.32578   0.24316   0.00000  Uiso   1.00
O318   O     0.12500   0.33711   0.15713   0.00000  Uiso   1.00
O319   O     0.29167   0.21211   0.12344   0.00000  Uiso   1.00
O320   O     0.20833   0.29922   0.20201   0.00000  Uiso   1.00
O321   O     0.20833   0.41289   0.23943   0.00000  Uiso   1.00
O322   O     0.20833   0.41289   0.16459   0.00000  Uiso   1.00
O323   O     0.29167   0.32578   0.16086   0.00000  Uiso   1.00
O324   O     0.29167   0.21211   0.19828   0.00000  Uiso   1.00
O325   O     0.45833   0.33711   0.16459   0.00000  Uiso   1.00
O326   O     0.37500   0.42422   0.24316   0.00000  Uiso   1.00
O327   O     0.37500   0.16289   0.15713   0.00000  Uiso   1.00
O328   O     0.37500   0.28789   0.20574   0.00000  Uiso   1.00
O329   O     0.45833   0.45078   0.20201   0.00000  Uiso   1.00
O330   O     0.45833   0.33711   0.23943   0.00000  Uiso   1.00
Cr331  Cr    0.15918   0.25000   0.07857   0.00000  Uiso   1.00
Cr332  Cr    0.09082   0.12500   0.03742   0.00000  Uiso   1.00
Cr333  Cr    0.00749   0.25000   0.07857   0.00000  Uiso   1.00
Cr334  Cr    0.07585   0.12500   0.11971   0.00000  Uiso   1.00
Cr335  Cr    0.32585   0.12500   0.11971   0.00000  Uiso   1.00
Cr336  Cr    0.25749   0.25000   0.07857   0.00000  Uiso   1.00
Cr337  Cr    0.17415   0.12500   0.11971   0.00000  Uiso   1.00
Cr338  Cr    0.24251   0.12500   0.03742   0.00000  Uiso   1.00
Cr339  Cr    0.49251   0.12500   0.03742   0.00000  Uiso   1.00
Cr340  Cr    0.42415   0.12500   0.11971   0.00000  Uiso   1.00
Cr341  Cr    0.34082   0.12500   0.03742   0.00000  Uiso   1.00
Cr342  Cr    0.40918   0.25000   0.07857   0.00000  Uiso   1.00
O343   O     0.12500   0.08711   0.08230   0.00000  Uiso   1.00
O344   O     0.04167   0.04922   0.03742   0.00000  Uiso   1.00
O345   O     0.04167   0.16289   0.07484   0.00000  Uiso   1.00
O346   O     0.04167   0.16289   0.00000   0.00000  Uiso   1.00
O347   O     0.12500   0.20078   0.11971   0.00000  Uiso   1.00
O348   O     0.12500   0.21211   0.03369   0.00000  Uiso   1.00
O349   O     0.29167   0.08711   0.00000   0.00000  Uiso   1.00
O350   O     0.20833   0.17422   0.07857   0.00000  Uiso   1.00
O351   O     0.20833   0.28789   0.11599   0.00000  Uiso   1.00
O352   O     0.20833   0.28789   0.04115   0.00000  Uiso   1.00
O353   O     0.29167   0.20078   0.03742   0.00000  Uiso   1.00
O354   O     0.29167   0.08711   0.07484   0.00000  Uiso   1.00
O355   O     0.45833   0.21211   0.04115   0.00000  Uiso   1.00
O356   O     0.37500   0.29922   0.11971   0.00000  Uiso   1.00
O357   O     0.37500   0.03789   0.03369   0.00000  Uiso   1.00
O358   O     0.37500   0.16289   0.08230   0.00000  Uiso   1.00
O359   O     0.45833   0.32578   0.07857   0.00000  Uiso   1.00
O360   O     0.45833   0.21211   0.11599   0.00000  Uiso   1.00
Cr361  Cr    0.15918   0.87500   0.44890   0.00000  Uiso   1.00
Cr362  Cr    0.09082   0.75000   0.40775   0.00000  Uiso   1.00
Cr363  Cr    0.00749   0.87500   0.44890   0.00000  Uiso   1.00
Cr364  Cr    0.07585   0.75000   0.49005   0.00000  Uiso   1.00
Cr365  Cr    0.32585   0.75000   0.49005   0.00000  Uiso   1.00
Cr366  Cr    0.25749   0.87500   0.44890   0.00000  Uiso   1.00
Cr367  Cr    0.17415   0.75000   0.49005   0.00000  Uiso   1.00
Cr368  Cr    0.24251   0.75000   0.40775   0.00000  Uiso   1.00
Cr369  Cr    0.49251   0.75000   0.40775   0.00000  Uiso   1.00
Cr370  Cr    0.42415   0.75000   0.49005   0.00000  Uiso   1.00
Cr371  Cr    0.34082   0.75000   0.40775   0.00000  Uiso   1.00
Cr372  Cr    0.40918   0.87500   0.44890   0.00000  Uiso   1.00
O373   O     0.12500   0.71211   0.45263   0.00000  Uiso   1.00
O374   O     0.04167   0.67422   0.40775   0.00000  Uiso   1.00
O375   O     0.04167   0.78789   0.44517   0.00000  Uiso   1.00
O376   O     0.04167   0.78789   0.37033   0.00000  Uiso   1.00
O377   O     0.12500   0.82578   0.49005   0.00000  Uiso   1.00
O378   O     0.12500   0.83711   0.40402   0.00000  Uiso   1.00
O379   O     0.29167   0.71211   0.37033   0.00000  Uiso   1.00
O380   O     0.20833   0.79922   0.44890   0.00000  Uiso   1.00
O381   O     0.20833   0.91289   0.48632   0.00000  Uiso   1.00
O382   O     0.20833   0.91289   0.41148   0.00000  Uiso   1.00
O383   O     0.29167   0.82578   0.40775   0.00000  Uiso   1.00
O384   O     0.29167   0.71211   0.44517   0.00000  Uiso   1.00
O385   O     0.45833   0.83711   0.41148   0.00000  Uiso   1.00
O386   O     0.37500   0.92422   0.49005   0.00000  Uiso   1.00
O387   O     0.37500   0.66289   0.40402   0.00000  Uiso   1.00
O388   O     0.37500   0.78789   0.45263   0.00000  Uiso   1.00
O389   O     0.45833   0.95078   0.44890   0.00000  Uiso   1.00
O390   O     0.45833   0.83711   0.48632   0.00000  Uiso   1.00
Cr391  Cr    0.15918   0.75000   0.32545   0.00000  Uiso   1.00
Cr392  Cr    0.09082   0.62500   0.28431   0.00000  Uiso   1.00
Cr393  Cr    0.00749   0.75000   0.32545   0.00000  Uiso   1.00
Cr394  Cr    0.07585   0.62500   0.36660   0.00000  Uiso   1.00
Cr395  Cr    0.32585   0.62500   0.36660   0.00000  Uiso   1.00
Cr396  Cr    0.25749   0.75000   0.32545   0.00000  Uiso   1.00
Cr397  Cr    0.17415   0.62500   0.36660   0.00000  Uiso   1.00
Cr398  Cr    0.24251   0.62500   0.28431   0.00000  Uiso   1.00
Cr399  Cr    0.49251   0.62500   0.28431   0.00000  Uiso   1.00
Cr400  Cr    0.42415   0.62500   0.36660   0.00000  Uiso   1.00
Cr401  Cr    0.34082   0.62500   0.28431   0.00000  Uiso   1.00
Cr402  Cr    0.40918   0.75000   0.32545   0.00000  Uiso   1.00
O403   O     0.12500   0.58711   0.32918   0.00000  Uiso   1.00
O404   O     0.04167   0.54922   0.28431   0.00000  Uiso   1.00
O405   O     0.04167   0.66289   0.32172   0.00000  Uiso   1.00
O406   O     0.04167   0.66289   0.24689   0.00000  Uiso   1.00
O407   O     0.12500   0.70078   0.36660   0.00000  Uiso   1.00
O408   O     0.12500   0.71211   0.28058   0.00000  Uiso   1.00
O409   O     0.29167   0.58711   0.24689   0.00000  Uiso   1.00
O410   O     0.20833   0.67422   0.32545   0.00000  Uiso   1.00
O411   O     0.20833   0.78789   0.36287   0.00000  Uiso   1.00
O412   O     0.20833   0.78789   0.28803   0.00000  Uiso   1.00
O413   O     0.29167   0.70078   0.28431   0.00000  Uiso   1.00
O414   O     0.29167   0.58711   0.32172   0.00000  Uiso   1.00
O415   O     0.45833   0.71211   0.28803   0.00000  Uiso   1.00
O416   O     0.37500   0.79922   0.36660   0.00000  Uiso   1.00
O417   O     0.37500   0.53789   0.28058   0.00000  Uiso   1.00
O418   O     0.37500   0.66289   0.32918   0.00000  Uiso   1.00
O419   O     0.45833   0.82578   0.32545   0.00000  Uiso   1.00
O420   O     0.45833   0.71211   0.36287   0.00000  Uiso   1.00
Cr421  Cr    0.15918   0.62500   0.20201   0.00000  Uiso   1.00
Cr422  Cr    0.09082   0.50000   0.16086   0.00000  Uiso   1.00
Cr423  Cr    0.00749   0.62500   0.20201   0.00000  Uiso   1.00
Cr424  Cr    0.07585   0.50000   0.24316   0.00000  Uiso   1.00
Cr425  Cr    0.32585   0.50000   0.24316   0.00000  Uiso   1.00
Cr426  Cr    0.25749   0.62500   0.20201   0.00000  Uiso   1.00
Cr427  Cr    0.17415   0.50000   0.24316   0.00000  Uiso   1.00
Cr428  Cr    0.24251   0.50000   0.16086   0.00000  Uiso   1.00
Cr429  Cr    0.49251   0.50000   0.16086   0.00000  Uiso   1.00
Cr430  Cr    0.42415   0.50000   0.24316   0.00000  Uiso   1.00
Cr431  Cr    0.34082   0.50000   0.16086   0.00000  Uiso   1.00
Cr432  Cr    0.40918   0.62500   0.20201   0.00000  Uiso   1.00
O433   O     0.12500   0.46211   0.20574   0.00000  Uiso   1.00
O434   O     0.04167   0.42422   0.16086   0.00000  Uiso   1.00
O435   O     0.04167   0.53789   0.19828   0.00000  Uiso   1.00
O436   O     0.04167   0.53789   0.12344   0.00000  Uiso   1.00
O437   O     0.12500   0.57578   0.24316   0.00000  Uiso   1.00
O438   O     0.12500   0.58711   0.15713   0.00000  Uiso   1.00
O439   O     0.29167   0.46211   0.12344   0.00000  Uiso   1.00
O440   O     0.20833   0.54922   0.20201   0.00000  Uiso   1.00
O441   O     0.20833   0.66289   0.23943   0.00000  Uiso   1.00
O442   O     0.20833   0.66289   0.16459   0.00000  Uiso   1.00
O443   O     0.29167   0.57578   0.16086   0.00000  Uiso   1.00
O444   O     0.29167   0.46211   0.19828   0.00000  Uiso   1.00
O445   O     0.45833   0.58711   0.16459   0.00000  Uiso   1.00
O446   O     0.37500   0.67422   0.24316   0.00000  Uiso   1.00
O447   O     0.37500   0.41289   0.15713   0.00000  Uiso   1.00
O448   O     0.37500   0.53789   0.20574   0.00000  Uiso   1.00
O449   O     0.45833   0.70078   0.20201   0.00000  Uiso   1.00
O450   O     0.45833   0.58711   0.23943   0.00000  Uiso   1.00
Cr451  Cr    0.15918   0.50000   0.07857   0.00000  Uiso   1.00
Cr452  Cr    0.09082   0.37500   0.03742   0.00000  Uiso   1.00
Cr453  Cr    0.00749   0.50000   0.07857   0.00000  Uiso   1.00
Cr454  Cr    0.07585   0.37500   0.11971   0.00000  Uiso   1.00
Cr455  Cr    0.32585   0.37500   0.11971   0.00000  Uiso   1.00
Cr456  Cr    0.25749   0.50000   0.07857   0.00000  Uiso   1.00
Cr457  Cr    0.17415   0.37500   0.11971   0.00000  Uiso   1.00
Cr458  Cr    0.24251   0.37500   0.03742   0.00000  Uiso   1.00
Cr459  Cr    0.49251   0.37500   0.03742   0.00000  Uiso   1.00
Cr460  Cr    0.42415   0.37500   0.11971   0.00000  Uiso   1.00
Cr461  Cr    0.34082   0.37500   0.03742   0.00000  Uiso   1.00
Cr462  Cr    0.40918   0.50000   0.07857   0.00000  Uiso   1.00
O463   O     0.12500   0.33711   0.08230   0.00000  Uiso   1.00
O464   O     0.04167   0.29922   0.03742   0.00000  Uiso   1.00
O465   O     0.04167   0.41289   0.07484   0.00000  Uiso   1.00
O466   O     0.04167   0.41289   0.00000   0.00000  Uiso   1.00
O467   O     0.12500   0.45078   0.11971   0.00000  Uiso   1.00
O468   O     0.12500   0.46211   0.03369   0.00000  Uiso   1.00
O469   O     0.29167   0.33711   0.00000   0.00000  Uiso   1.00
O470   O     0.20833   0.42422   0.07857   0.00000  Uiso   1.00
O471   O     0.20833   0.53789   0.11599   0.00000  Uiso   1.00
O472   O     0.20833   0.53789   0.04115   0.00000  Uiso   1.00
O473   O     0.29167   0.45078   0.03742   0.00000  Uiso   1.00
O474   O     0.29167   0.33711   0.07484   0.00000  Uiso   1.00
O475   O     0.45833   0.46211   0.04115   0.00000  Uiso   1.00
O476   O     0.37500   0.54922   0.11971   0.00000  Uiso   1.00
O477   O     0.37500   0.28789   0.03369   0.00000  Uiso   1.00
O478   O     0.37500   0.41289   0.08230   0.00000  Uiso   1.00
O479   O     0.45833   0.57578   0.07857   0.00000  Uiso   1.00
O480   O     0.45833   0.46211   0.11599   0.00000  Uiso   1.00
Cr481  Cr    0.65918   0.12500   0.44890   0.00000  Uiso   1.00
Cr482  Cr    0.59082  -0.00000   0.40775   0.00000  Uiso   1.00
Cr483  Cr    0.50749   0.12500   0.44890   0.00000  Uiso   1.00
Cr484  Cr    0.57585   0.00000   0.49005   0.00000  Uiso   1.00
Cr485  Cr    0.82585   0.00000   0.49005   0.00000  Uiso   1.00
Cr486  Cr    0.75749   0.12500   0.44890   0.00000  Uiso   1.00
Cr487  Cr    0.67415   0.00000   0.49005   0.00000  Uiso   1.00
Cr488  Cr    0.74251  -0.00000   0.40775   0.00000  Uiso   1.00
Cr489  Cr    0.99251  -0.00000   0.40775   0.00000  Uiso   1.00
Cr490  Cr    0.92415   0.00000   0.49005   0.00000  Uiso   1.00
Cr491  Cr    0.84082  -0.00000   0.40775   0.00000  Uiso   1.00
Cr492  Cr    0.90918   0.12500   0.44890   0.00000  Uiso   1.00
O493   O     0.62500   0.96211   0.45263   0.00000  Uiso   1.00
O494   O     0.54167   0.92422   0.40775   0.00000  Uiso   1.00
O495   O     0.54167   0.03789   0.44517   0.00000  Uiso   1.00
O496   O     0.54167   0.03789   0.37033   0.00000  Uiso   1.00
O497   O     0.62500   0.07578   0.49005   0.00000  Uiso   1.00
O498   O     0.62500   0.08711   0.40402   0.00000  Uiso   1.00
O499   O     0.79167   0.96211   0.37033   0.00000  Uiso   1.00
O500   O     0.70833   0.04922   0.44890   0.00000  Uiso   1.00
O501   O     0.70833   0.16289   0.48632   0.00000  Uiso   1.00
O502   O     0.70833   0.16289   0.41148   0.00000  Uiso   1.00
O503   O     0.79167   0.07578   0.40775   0.00000  Uiso   1.00
O504   O     0.79167   0.96211   0.44517   0.00000  Uiso   1.00
O505   O     0.95833   0.08711   0.41148   0.00000  Uiso   1.00
O506   O     0.87500   0.17422   0.49005   0.00000  Uiso   1.00
O507   O     0.87500   0.91289   0.40402   0.00000  Uiso   1.00
O508   O     0.87500   0.03789   0.45263   0.00000  Uiso   1.00
O509   O     0.95833   0.20078   0.44890   0.00000  Uiso   1.00
O510   O     0.95833   0.08711   0.48632   0.00000  Uiso   1.00
Cr511  Cr    0.65918   0.00000   0.32545   0.00000  Uiso   1.00
Cr512  Cr    0.59082   0.87500   0.28431   0.00000  Uiso   1.00
Cr513  Cr    0.50749   0.00000   0.32545   0.00000  Uiso   1.00
Cr514  Cr    0.57585   0.87500   0.36660   0.00000  Uiso   1.00
Cr515  Cr    0.82585   0.87500   0.36660   0.00000  Uiso   1.00
Cr516  Cr    0.75749   0.00000   0.32545   0.00000  Uiso   1.00
Cr517  Cr    0.67415   0.87500   0.36660   0.00000  Uiso   1.00
Cr518  Cr    0.74251   0.87500   0.28431   0.00000  Uiso   1.00
Cr519  Cr    0.99251   0.87500   0.28431   0.00000  Uiso   1.00
Cr520  Cr    0.92415   0.87500   0.36660   0.00000  Uiso   1.00
Cr521  Cr    0.84082   0.87500   0.28431   0.00000  Uiso   1.00
Cr522  Cr    0.90918   0.00000   0.32545   0.00000  Uiso   1.00
O523   O     0.62500   0.83711   0.32918   0.00000  Uiso   1.00
O524   O     0.54167   0.79922   0.28431   0.00000  Uiso   1.00
O525   O     0.54167   0.91289   0.32172   0.00000  Uiso   1.00
O526   O     0.54167   0.91289   0.24689   0.00000  Uiso   1.00
O527   O     0.62500   0.95078   0.36660   0.00000  Uiso   1.00
O528   O     0.62500   0.96211   0.28058   0.00000  Uiso   1.00
O529   O     0.79167   0.83711   0.24689   0.00000  Uiso   1.00
O530   O     0.70833   0.92422   0.32545   0.00000  Uiso   1.00
O531   O     0.70833   0.03789   0.36287   0.00000  Uiso   1.00
O532   O     0.70833   0.03789   0.28803   0.00000  Uiso   1.00
O533   O     0.79167   0.95078   0.28431   0.00000  Uiso   1.00
O534   O     0.79167   0.83711   0.32172   0.00000  Uiso   1.00
O535   O     0.95833   0.96211   0.28803   0.00000  Uiso   1.00
O536   O     0.87500   0.04922   0.36660   0.00000  Uiso   1.00
O537   O     0.87500   0.78789   0.28058   0.00000  Uiso   1.00
O538   O     0.87500   0.91289   0.32918   0.00000  Uiso   1.00
O539   O     0.95833   0.07578   0.32545   0.00000  Uiso   1.00
O540   O     0.95833   0.96211   0.36287   0.00000  Uiso   1.00
Cr541  Cr    0.65918   0.87500   0.20201   0.00000  Uiso   1.00
Cr542  Cr    0.59082   0.75000   0.16086   0.00000  Uiso   1.00
Cr543  Cr    0.50749   0.87500   0.20201   0.00000  Uiso   1.00
Cr544  Cr    0.57585   0.75000   0.24316   0.00000  Uiso   1.00
Cr545  Cr    0.82585   0.75000   0.24316   0.00000  Uiso   1.00
Cr546  Cr    0.75749   0.87500   0.20201   0.00000  Uiso   1.00
Cr547  Cr    0.67415   0.75000   0.24316   0.00000  Uiso   1.00
Cr548  Cr    0.74251   0.75000   0.16086   0.00000  Uiso   1.00
Cr549  Cr    0.99251   0.75000   0.16086   0.00000  Uiso   1.00
Cr550  Cr    0.92415   0.75000   0.24316   0.00000  Uiso   1.00
Cr551  Cr    0.84082   0.75000   0.16086   0.00000  Uiso   1.00
Cr552  Cr    0.90918   0.87500   0.20201   0.00000  Uiso   1.00
O553   O     0.62500   0.71211   0.20574   0.00000  Uiso   1.00
O554   O     0.54167   0.67422   0.16086   0.00000  Uiso   1.00
O555   O     0.54167   0.78789   0.19828   0.00000  Uiso   1.00
O556   O     0.54167   0.78789   0.12344   0.00000  Uiso   1.00
O557   O     0.62500   0.82578   0.24316   0.00000  Uiso   1.00
O558   O     0.62500   0.83711   0.15713   0.00000  Uiso   1.00
O559   O     0.79167   0.71211   0.12344   0.00000  Uiso   1.00
O560   O     0.70833   0.79922   0.20201   0.00000  Uiso   1.00
O561   O     0.70833   0.91289   0.23943   0.00000  Uiso   1.00
O562   O     0.70833   0.91289   0.16459   0.00000  Uiso   1.00
O563   O     0.79167   0.82578   0.16086   0.00000  Uiso   1.00
O564   O     0.79167   0.71211   0.19828   0.00000  Uiso   1.00
O565   O     0.95833   0.83711   0.16459   0.00000  Uiso   1.00
O566   O     0.87500   0.92422   0.24316   0.00000  Uiso   1.00
O567   O     0.87500   0.66289   0.15713   0.00000  Uiso   1.00
O568   O     0.87500   0.78789   0.20574   0.00000  Uiso   1.00
O569   O     0.95833   0.95078   0.20201   0.00000  Uiso   1.00
O570   O     0.95833   0.83711   0.23943   0.00000  Uiso   1.00
Cr571  Cr    0.65918   0.75000   0.07857   0.00000  Uiso   1.00
Cr572  Cr    0.59082   0.62500   0.03742   0.00000  Uiso   1.00
Cr573  Cr    0.50749   0.75000   0.07857   0.00000  Uiso   1.00
Cr574  Cr    0.57585   0.62500   0.11971   0.00000  Uiso   1.00
Cr575  Cr    0.82585   0.62500   0.11971   0.00000  Uiso   1.00
Cr576  Cr    0.75749   0.75000   0.07857   0.00000  Uiso   1.00
Cr577  Cr    0.67415   0.62500   0.11971   0.00000  Uiso   1.00
Cr578  Cr    0.74251   0.62500   0.03742   0.00000  Uiso   1.00
Cr579  Cr    0.99251   0.62500   0.03742   0.00000  Uiso   1.00
Cr580  Cr    0.92415   0.62500   0.11971   0.00000  Uiso   1.00
Cr581  Cr    0.84082   0.62500   0.03742   0.00000  Uiso   1.00
Cr582  Cr    0.90918   0.75000   0.07857   0.00000  Uiso   1.00
O583   O     0.62500   0.58711   0.08230   0.00000  Uiso   1.00
O584   O     0.54167   0.54922   0.03742   0.00000  Uiso   1.00
O585   O     0.54167   0.66289   0.07484   0.00000  Uiso   1.00
O586   O     0.54167   0.66289   0.00000   0.00000  Uiso   1.00
O587   O     0.62500   0.70078   0.11971   0.00000  Uiso   1.00
O588   O     0.62500   0.71211   0.03369   0.00000  Uiso   1.00
O589   O     0.79167   0.58711   0.00000   0.00000  Uiso   1.00
O590   O     0.70833   0.67422   0.07857   0.00000  Uiso   1.00
O591   O     0.70833   0.78789   0.11599   0.00000  Uiso   1.00
O592   O     0.70833   0.78789   0.04115   0.00000  Uiso   1.00
O593   O     0.79167   0.70078   0.03742   0.00000  Uiso   1.00
O594   O     0.79167   0.58711   0.07484   0.00000  Uiso   1.00
O595   O     0.95833   0.71211   0.04115   0.00000  Uiso   1.00
O596   O     0.87500   0.79922   0.11971   0.00000  Uiso   1.00
O597   O     0.87500   0.53789   0.03369   0.00000  Uiso   1.00
O598   O     0.87500   0.66289   0.08230   0.00000  Uiso   1.00
O599   O     0.95833   0.82578   0.07857   0.00000  Uiso   1.00
O600   O     0.95833   0.71211   0.11599   0.00000  Uiso   1.00
Cr601  Cr    0.65918   0.37500   0.44890   0.00000  Uiso   1.00
Cr602  Cr    0.59082   0.25000   0.40775   0.00000  Uiso   1.00
Cr603  Cr    0.50749   0.37500   0.44890   0.00000  Uiso   1.00
Cr604  Cr    0.57585   0.25000   0.49005   0.00000  Uiso   1.00
Cr605  Cr    0.82585   0.25000   0.49005   0.00000  Uiso   1.00
Cr606  Cr    0.75749   0.37500   0.44890   0.00000  Uiso   1.00
Cr607  Cr    0.67415   0.25000   0.49005   0.00000  Uiso   1.00
Cr608  Cr    0.74251   0.25000   0.40775   0.00000  Uiso   1.00
Cr609  Cr    0.99251   0.25000   0.40775   0.00000  Uiso   1.00
Cr610  Cr    0.92415   0.25000   0.49005   0.00000  Uiso   1.00
Cr611  Cr    0.84082   0.25000   0.40775   0.00000  Uiso   1.00
Cr612  Cr    0.90918   0.37500   0.44890   0.00000  Uiso   1.00
O613   O     0.62500   0.21211   0.45263   0.00000  Uiso   1.00
O614   O     0.54167   0.17422   0.40775   0.00000  Uiso   1.00
O615   O     0.54167   0.28789   0.44517   0.00000  Uiso   1.00
O616   O     0.54167   0.28789   0.37033   0.00000  Uiso   1.00
O617   O     0.62500   0.32578   0.49005   0.00000  Uiso   1.00
O618   O     0.62500   0.33711   0.40402   0.00000  Uiso   1.00
O619   O     0.79167   0.21211   0.37033   0.00000  Uiso   1.00
O620   O     0.70833   0.29922   0.44890   0.00000  Uiso   1.00
O621   O     0.70833   0.41289   0.48632   0.00000  Uiso   1.00
O622   O     0.70833   0.41289   0.41148   0.00000  Uiso   1.00
O623   O     0.79167   0.32578   0.40775   0.00000  Uiso   1.00
O624   O     0.79167   0.21211   0.44517   0.00000  Uiso   1.00
O625   O     0.95833   0.33711   0.41148   0.00000  Uiso   1.00
O626   O     0.87500   0.42422   0.49005   0.00000  Uiso   1.00
O627   O     0.87500   0.16289   0.40402   0.00000  Uiso   1.00
O628   O     0.87500   0.28789   0.45263   0.00000  Uiso   1.00
O629   O     0.95833   0.45078   0.44890   0.00000  Uiso   1.00
O630   O     0.95833   0.33711   0.48632   0.00000  Uiso   1.00
Cr631  Cr    0.65918   0.25000   0.32545   0.00000  Uiso   1.00
Cr632  Cr    0.59082   0.12500   0.28431   0.00000  Uiso   1.00
Cr633  Cr    0.50749   0.25000   0.32545   0.00000  Uiso   1.00
Cr634  Cr    0.57585   0.12500   0.36660   0.00000  Uiso   1.00
Cr635  Cr    0.82585   0.12500   0.36660   0.00000  Uiso   1.00
Cr636  Cr    0.75749   0.25000   0.32545   0.00000  Uiso   1.00
Cr637  Cr    0.67415   0.12500   0.36660   0.00000  Uiso   1.00
Cr638  Cr    0.74251   0.12500   0.28431   0.00000  Uiso   1.00
Cr639  Cr    0.99251   0.12500   0.28431   0.00000  Uiso   1.00
Cr640  Cr    0.92415   0.12500   0.36660   0.00000  Uiso   1.00
Cr641  Cr    0.84082   0.12500   0.28431   0.00000  Uiso   1.00
Cr642  Cr    0.90918   0.25000   0.32545   0.00000  Uiso   1.00
O643   O     0.62500   0.08711   0.32918   0.00000  Uiso   1.00
O644   O     0.54167   0.04922   0.28431   0.00000  Uiso   1.00
O645   O     0.54167   0.16289   0.32172   0.00000  Uiso   1.00
O646   O     0.54167   0.16289   0.24689   0.00000  Uiso   1.00
O647   O     0.62500   0.20078   0.36660   0.00000  Uiso   1.00
O648   O     0.62500   0.21211   0.28058   0.00000  Uiso   1.00
O649   O     0.79167   0.08711   0.24689   0.00000  Uiso   1.00
O650   O     0.70833   0.17422   0.32545   0.00000  Uiso   1.00
O651   O     0.70833   0.28789   0.36287   0.00000  Uiso   1.00
O652   O     0.70833   0.28789   0.28803   0.00000  Uiso   1.00
O653   O     0.79167   0.20078   0.28431   0.00000  Uiso   1.00
O654   O     0.79167   0.08711   0.32172   0.00000  Uiso   1.00
O655   O     0.95833   0.21211   0.28803   0.00000  Uiso   1.00
O656   O     0.87500   0.29922   0.36660   0.00000  Uiso   1.00
O657   O     0.87500   0.03789   0.28058   0.00000  Uiso   1.00
O658   O     0.87500   0.16289   0.32918   0.00000  Uiso   1.00
O659   O     0.95833   0.32578   0.32545   0.00000  Uiso   1.00
O660   O     0.95833   0.21211   0.36287   0.00000  Uiso   1.00
Cr661  Cr    0.65918   0.12500   0.20201   0.00000  Uiso   1.00
Cr662  Cr    0.59082  -0.00000   0.16086   0.00000  Uiso   1.00
Cr663  Cr    0.50749   0.12500   0.20201   0.00000  Uiso   1.00
Cr664  Cr    0.57585   0.00000   0.24316   0.00000  Uiso   1.00
Cr665  Cr    0.82585   0.00000   0.24316   0.00000  Uiso   1.00
Cr666  Cr    0.75749   0.12500   0.20201   0.00000  Uiso   1.00
Cr667  Cr    0.67415   0.00000   0.24316   0.00000  Uiso   1.00
Cr668  Cr    0.74251  -0.00000   0.16086   0.00000  Uiso   1.00
Cr669  Cr    0.99251  -0.00000   0.16086   0.00000  Uiso   1.00
Cr670  Cr    0.92415   0.00000   0.24316   0.00000  Uiso   1.00
Cr671  Cr    0.84082  -0.00000   0.16086   0.00000  Uiso   1.00
Cr672  Cr    0.90918   0.12500   0.20201   0.00000  Uiso   1.00
O673   O     0.62500   0.96211   0.20574   0.00000  Uiso   1.00
O674   O     0.54167   0.92422   0.16086   0.00000  Uiso   1.00
O675   O     0.54167   0.03789   0.19828   0.00000  Uiso   1.00
O676   O     0.54167   0.03789   0.12344   0.00000  Uiso   1.00
O677   O     0.62500   0.07578   0.24316   0.00000  Uiso   1.00
O678   O     0.62500   0.08711   0.15713   0.00000  Uiso   1.00
O679   O     0.79167   0.96211   0.12344   0.00000  Uiso   1.00
O680   O     0.70833   0.04922   0.20201   0.00000  Uiso   1.00
O681   O     0.70833   0.16289   0.23943   0.00000  Uiso   1.00
O682   O     0.70833   0.16289   0.16459   0.00000  Uiso   1.00
O683   O     0.79167   0.07578   0.16086   0.00000  Uiso   1.00
O684   O     0.79167   0.96211   0.19828   0.00000  Uiso   1.00
O685   O     0.95833   0.08711   0.16459   0.00000  Uiso   1.00
O686   O     0.87500   0.17422   0.24316   0.00000  Uiso   1.00
O687   O     0.87500   0.91289   0.15713   0.00000  Uiso   1.00
O688   O     0.87500   0.03789   0.20574   0.00000  Uiso   1.00
O689   O     0.95833   0.20078   0.20201   0.00000  Uiso   1.00
O690   O     0.95833   0.08711   0.23943   0.00000  Uiso   1.00
Cr691  Cr    0.65918   0.00000   0.07857   0.00000  Uiso   1.00
Cr692  Cr    0.59082   0.87500   0.03742   0.00000  Uiso   1.00
Cr693  Cr    0.50749   0.00000   0.07857   0.00000  Uiso   1.00
Cr694  Cr    0.57585   0.87500   0.11971   0.00000  Uiso   1.00
Cr695  Cr    0.82585   0.87500   0.11971   0.00000  Uiso   1.00
Cr696  Cr    0.75749   0.00000   0.07857   0.00000  Uiso   1.00
Cr697  Cr    0.67415   0.87500   0.11971   0.00000  Uiso   1.00
Cr698  Cr    0.74251   0.87500   0.03742   0.00000  Uiso   1.00
Cr699  Cr    0.99251   0.87500   0.03742   0.00000  Uiso   1.00
Cr700  Cr    0.92415   0.87500   0.11971   0.00000  Uiso   1.00
Cr701  Cr    0.84082   0.87500   0.03742   0.00000  Uiso   1.00
Cr702  Cr    0.90918   0.00000   0.07857   0.00000  Uiso   1.00
O703   O     0.62500   0.83711   0.08230   0.00000  Uiso   1.00
O704   O     0.54167   0.79922   0.03742   0.00000  Uiso   1.00
O705   O     0.54167   0.91289   0.07484   0.00000  Uiso   1.00
O706   O     0.54167   0.91289   0.00000   0.00000  Uiso   1.00
O707   O     0.62500   0.95078   0.11971   0.00000  Uiso   1.00
O708   O     0.62500   0.96211   0.03369   0.00000  Uiso   1.00
O709   O     0.79167   0.83711   0.00000   0.00000  Uiso   1.00
O710   O     0.70833   0.92422   0.07857   0.00000  Uiso   1.00
O711   O     0.70833   0.03789   0.11599   0.00000  Uiso   1.00
O712   O     0.70833   0.03789   0.04115   0.00000  Uiso   1.00
O713   O     0.79167   0.95078   0.03742   0.00000  Uiso   1.00
O714   O     0.79167   0.83711   0.07484   0.00000  Uiso   1.00
O715   O     0.95833   0.96211   0.04115   0.00000  Uiso   1.00
O716   O     0.87500   0.04922   0.11971   0.00000  Uiso   1.00
O717   O     0.87500   0.78789   0.03369   0.00000  Uiso   1.00
O718   O     0.87500   0.91289   0.08230   0.00000  Uiso   1.00
O719   O     0.95833   0.07578   0.07857   0.00000  Uiso   1.00
O720   O     0.95833   0.96211   0.11599   0.00000  Uiso   1.00
Cr721  Cr    0.65918   0.62500   0.44890   0.00000  Uiso   1.00
Cr722  Cr    0.59082   0.50000   0.40775   0.00000  Uiso   1.00
Cr723  Cr    0.50749   0.62500   0.44890   0.00000  Uiso   1.00
Cr724  Cr    0.57585   0.50000   0.49005   0.00000  Uiso   1.00
Cr725  Cr    0.82585   0.50000   0.49005   0.00000  Uiso   1.00
Cr726  Cr    0.75749   0.62500   0.44890   0.00000  Uiso   1.00
Cr727  Cr    0.67415   0.50000   0.49005   0.00000  Uiso   1.00
Cr728  Cr    0.74251   0.50000   0.40775   0.00000  Uiso   1.00
Cr729  Cr    0.99251   0.50000   0.40775   0.00000  Uiso   1.00
Cr730  Cr    0.92415   0.50000   0.49005   0.00000  Uiso   1.00
Cr731  Cr    0.84082   0.50000   0.40775   0.00000  Uiso   1.00
Cr732  Cr    0.90918   0.62500   0.44890   0.00000  Uiso   1.00
O733   O     0.62500   0.46211   0.45263   0.00000  Uiso   1.00
O734   O     0.54167   0.42422   0.40775   0.00000  Uiso   1.00
O735   O     0.54167   0.53789   0.44517   0.00000  Uiso   1.00
O736   O     0.54167   0.53789   0.37033   0.00000  Uiso   1.00
O737   O     0.62500   0.57578   0.49005   0.00000  Uiso   1.00
O738   O     0.62500   0.58711   0.40402   0.00000  Uiso   1.00
O739   O     0.79167   0.46211   0.37033   0.00000  Uiso   1.00
O740   O     0.70833   0.54922   0.44890   0.00000  Uiso   1.00
O741   O     0.70833   0.66289   0.48632   0.00000  Uiso   1.00
O742   O     0.70833   0.66289   0.41148   0.00000  Uiso   1.00
O743   O     0.79167   0.57578   0.40775   0.00000  Uiso   1.00
O744   O     0.79167   0.46211   0.44517   0.00000  Uiso   1.00
O745   O     0.95833   0.58711   0.41148   0.00000  Uiso   1.00
O746   O     0.87500   0.67422   0.49005   0.00000  Uiso   1.00
O747   O     0.87500   0.41289   0.40402   0.00000  Uiso   1.00
O748   O     0.87500   0.53789   0.45263   0.00000  Uiso   1.00
O749   O     0.95833   0.70078   0.44890   0.00000  Uiso   1.00
O750   O     0.95833   0.58711   0.48632   0.00000  Uiso   1.00
Cr751  Cr    0.65918   0.50000   0.32545   0.00000  Uiso   1.00
Cr752  Cr    0.59082   0.37500   0.28431   0.00000  Uiso   1.00
Cr753  Cr    0.50749   0.50000   0.32545   0.00000  Uiso   1.00
Cr754  Cr    0.57585   0.37500   0.36660   0.00000  Uiso   1.00
Cr755  Cr    0.82585   0.37500   0.36660   0.00000  Uiso   1.00
Cr756  Cr    0.75749   0.50000   0.32545   0.00000  Uiso   1.00
Cr757  Cr    0.67415   0.37500   0.36660   0.00000  Uiso   1.00
Cr758  Cr    0.74251   0.37500   0.28431   0.00000  Uiso   1.00
Cr759  Cr    0.99251   0.37500   0.28431   0.00000  Uiso   1.00
Cr760  Cr    0.92415   0.37500   0.36660   0.00000  Uiso   1.00
Cr761  Cr    0.84082   0.37500   0.28431   0.00000  Uiso   1.00
Cr762  Cr    0.90918   0.50000   0.32545   0.00000  Uiso   1.00
O763   O     0.62500   0.33711   0.32918   0.00000  Uiso   1.00
O764   O     0.54167   0.29922   0.28431   0.00000  Uiso   1.00
O765   O     0.54167   0.41289   0.32172   0.00000  Uiso   1.00
O766   O     0.54167   0.41289   0.24689   0.00000  Uiso   1.00
O767   O     0.62500   0.45078   0.36660   0.00000  Uiso   1.00
O768   O     0.62500   0.46211   0.28058   0.00000  Uiso   1.00
O769   O     0.79167   0.33711   0.24689   0.00000  Uiso   1.00
O770   O     0.70833   0.42422   0.32545   0.00000  Uiso   1.00
O771   O     0.70833   0.53789   0.36287   0.00000  Uiso   1.00
O772   O     0.70833   0.53789   0.28803   0.00000  Uiso   1.00
O773   O     0.79167   0.45078   0.28431   0.00000  Uiso   1.00
O774   O     0.79167   0.33711   0.32172   0.00000  Uiso   1.00
O775   O     0.95833   0.46211   0.28803   0.00000  Uiso   1.00
O776   O     0.87500   0.54922   0.36660   0.00000  Uiso   1.00
O777   O     0.87500   0.28789   0.28058   0.00000  Uiso   1.00
O778   O     0.87500   0.41289   0.32918   0.00000  Uiso   1.00
O779   O     0.95833   0.57578   0.32545   0.00000  Uiso   1.00
O780   O     0.95833   0.46211   0.36287   0.00000  Uiso   1.00
Cr781  Cr    0.65918   0.37500   0.20201   0.00000  Uiso   1.00
Cr782  Cr    0.59082   0.25000   0.16086   0.00000  Uiso   1.00
Cr783  Cr    0.50749   0.37500   0.20201   0.00000  Uiso   1.00
Cr784  Cr    0.57585   0.25000   0.24316   0.00000  Uiso   1.00
Cr785  Cr    0.82585   0.25000   0.24316   0.00000  Uiso   1.00
Cr786  Cr    0.75749   0.37500   0.20201   0.00000  Uiso   1.00
Cr787  Cr    0.67415   0.25000   0.24316   0.00000  Uiso   1.00
Cr788  Cr    0.74251   0.25000   0.16086   0.00000  Uiso   1.00
Cr789  Cr    0.99251   0.25000   0.16086   0.00000  Uiso   1.00
Cr790  Cr    0.92415   0.25000   0.24316   0.00000  Uiso   1.00
Cr791  Cr    0.84082   0.25000   0.16086   0.00000  Uiso   1.00
Cr792  Cr    0.90918   0.37500   0.20201   0.00000  Uiso   1.00
O793   O     0.62500   0.21211   0.20574   0.00000  Uiso   1.00
O794   O     0.54167   0.17422   0.16086   0.00000  Uiso   1.00
O795   O     0.54167   0.28789   0.19828   0.00000  Uiso   1.00
O796   O     0.54167   0.28789   0.12344   0.00000  Uiso   1.00
O797   O     0.62500   0.32578   0.24316   0.00000  Uiso   1.00
O798   O     0.62500   0.33711   0.15713   0.00000  Uiso   1.00
O799   O     0.79167   0.21211   0.12344   0.00000  Uiso   1.00
O800   O     0.70833   0.29922   0.20201   0.00000  Uiso   1.00
O801   O     0.70833   0.41289   0.23943   0.00000  Uiso   1.00
O802   O     0.70833   0.41289   0.16459   0.00000  Uiso   1.00
O803   O     0.79167   0.32578   0.16086   0.00000  Uiso   1.00
O804   O     0.79167   0.21211   0.19828   0.00000  Uiso   1.00
O805   O     0.95833   0.33711   0.16459   0.00000  Uiso   1.00
O806   O     0.87500   0.42422   0.24316   0.00000  Uiso   1.00
O807   O     0.87500   0.16289   0.15713   0.00000  Uiso   1.00
O808   O     0.87500   0.28789   0.20574   0.00000  Uiso   1.00
O809   O     0.95833   0.45078   0.20201   0.00000  Uiso   1.00
O810   O     0.95833   0.33711   0.23943   0.00000  Uiso   1.00
Cr811  Cr    0.65918   0.25000   0.07857   0.00000  Uiso   1.00
Cr812  Cr    0.59082   0.12500   0.03742   0.00000  Uiso   1.00
Cr813  Cr    0.50749   0.25000   0.07857   0.00000  Uiso   1.00
Cr814  Cr    0.57585   0.12500   0.11971   0.00000  Uiso   1.00
Cr815  Cr    0.82585   0.12500   0.11971   0.00000  Uiso   1.00
Cr816  Cr    0.75749   0.25000   0.07857   0.00000  Uiso   1.00
Cr817  Cr    0.67415   0.12500   0.11971   0.00000  Uiso   1.00
Cr818  Cr    0.74251   0.12500   0.03742   0.00000  Uiso   1.00
Cr819  Cr    0.99251   0.12500   0.03742   0.00000  Uiso   1.00
Cr820  Cr    0.92415   0.12500   0.11971   0.00000  Uiso   1.00
Cr821  Cr    0.84082   0.12500   0.03742   0.00000  Uiso   1.00
Cr822  Cr    0.90918   0.25000   0.07857   0.00000  Uiso   1.00
O823   O     0.62500   0.08711   0.08230   0.00000  Uiso   1.00
O824   O     0.54167   0.04922   0.03742   0.00000  Uiso   1.00
O825   O     0.54167   0.16289   0.07484   0.00000  Uiso   1.00
O826   O     0.54167   0.16289   0.00000   0.00000  Uiso   1.00
O827   O     0.62500   0.20078   0.11971   0.00000  Uiso   1.00
O828   O     0.62500   0.21211   0.03369   0.00000  Uiso   1.00
O829   O     0.79167   0.08711   0.00000   0.00000  Uiso   1.00
O830   O     0.70833   0.17422   0.07857   0.00000  Uiso   1.00
O831   O     0.70833   0.28789   0.11599   0.00000  Uiso   1.00
O832   O     0.70833   0.28789   0.04115   0.00000  Uiso   1.00
O833   O     0.79167   0.20078   0.03742   0.00000  Uiso   1.00
O834   O     0.79167   0.08711   0.07484   0.00000  Uiso   1.00
O835   O     0.95833   0.21211   0.04115   0.00000  Uiso   1.00
O836   O     0.87500   0.29922   0.11971   0.00000  Uiso   1.00
O837   O     0.87500   0.03789   0.03369   0.00000  Uiso   1.00
O838   O     0.87500   0.16289   0.08230   0.00000  Uiso   1.00
O839   O     0.95833   0.32578   0.07857   0.00000  Uiso   1.00
O840   O     0.95833   0.21211   0.11599   0.00000  Uiso   1.00
Cr841  Cr    0.65918   0.87500   0.44890   0.00000  Uiso   1.00
Cr842  Cr    0.59082   0.75000   0.40775   0.00000  Uiso   1.00
Cr843  Cr    0.50749   0.87500   0.44890   0.00000  Uiso   1.00
Cr844  Cr    0.57585   0.75000   0.49005   0.00000  Uiso   1.00
Cr845  Cr    0.82585   0.75000   0.49005   0.00000  Uiso   1.00
Cr846  Cr    0.75749   0.87500   0.44890   0.00000  Uiso   1.00
Cr847  Cr    0.67415   0.75000   0.49005   0.00000  Uiso   1.00
Cr848  Cr    0.74251   0.75000   0.40775   0.00000  Uiso   1.00
Cr849  Cr    0.99251   0.75000   0.40775   0.00000  Uiso   1.00
Cr850  Cr    0.92415   0.75000   0.49005   0.00000  Uiso   1.00
Cr851  Cr    0.84082   0.75000   0.40775   0.00000  Uiso   1.00
Cr852  Cr    0.90918   0.87500   0.44890   0.00000  Uiso   1.00
O853   O     0.62500   0.71211   0.45263   0.00000  Uiso   1.00
O854   O     0.54167   0.67422   0.40775   0.00000  Uiso   1.00
O855   O     0.54167   0.78789   0.44517   0.00000  Uiso   1.00
O856   O     0.54167   0.78789   0.37033   0.00000  Uiso   1.00
O857   O     0.62500   0.82578   0.49005   0.00000  Uiso   1.00
O858   O     0.62500   0.83711   0.40402   0.00000  Uiso   1.00
O859   O     0.79167   0.71211   0.37033   0.00000  Uiso   1.00
O860   O     0.70833   0.79922   0.44890   0.00000  Uiso   1.00
O861   O     0.70833   0.91289   0.48632   0.00000  Uiso   1.00
O862   O     0.70833   0.91289   0.41148   0.00000  Uiso   1.00
O863   O     0.79167   0.82578   0.40775   0.00000  Uiso   1.00
O864   O     0.79167   0.71211   0.44517   0.00000  Uiso   1.00
O865   O     0.95833   0.83711   0.41148   0.00000  Uiso   1.00
O866   O     0.87500   0.92422   0.49005   0.00000  Uiso   1.00
O867   O     0.87500   0.66289   0.40402   0.00000  Uiso   1.00
O868   O     0.87500   0.78789   0.45263   0.00000  Uiso   1.00
O869   O     0.95833   0.95078   0.44890   0.00000  Uiso   1.00
O870   O     0.95833   0.83711   0.48632   0.00000  Uiso   1.00
Cr871  Cr    0.65918   0.75000   0.32545   0.00000  Uiso   1.00
Cr872  Cr    0.59082   0.62500   0.28431   0.00000  Uiso   1.00
Cr873  Cr    0.50749   0.75000   0.32545   0.00000  Uiso   1.00
Cr874  Cr    0.57585   0.62500   0.36660   0.00000  Uiso   1.00
Cr875  Cr    0.82585   0.62500   0.36660   0.00000  Uiso   1.00
Cr876  Cr    0.75749   0.75000   0.32545   0.00000  Uiso   1.00
Cr877  Cr    0.67415   0.62500   0.36660   0.00000  Uiso   1.00
Cr878  Cr    0.74251   0.62500   0.28431   0.00000  Uiso   1.00
Cr879  Cr    0.99251   0.62500   0.28431   0.00000  Uiso   1.00
Cr880  Cr    0.92415   0.62500   0.36660   0.00000  Uiso   1.00
Cr881  Cr    0.84082   0.62500   0.28431   0.00000  Uiso   1.00
Cr882  Cr    0.90918   0.75000   0.32545   0.00000  Uiso   1.00
O883   O     0.62500   0.58711   0.32918   0.00000  Uiso   1.00
O884   O     0.54167   0.54922   0.28431   0.00000  Uiso   1.00
O885   O     0.54167   0.66289   0.32172   0.00000  Uiso   1.00
O886   O     0.54167   0.66289   0.24689   0.00000  Uiso   1.00
O887   O     0.62500   0.70078   0.36660   0.00000  Uiso   1.00
O888   O     0.62500   0.71211   0.28058   0.00000  Uiso   1.00
O889   O     0.79167   0.58711   0.24689   0.00000  Uiso   1.00
O890   O     0.70833   0.67422   0.32545   0.00000  Uiso   1.00
O891   O     0.70833   0.78789   0.36287   0.00000  Uiso   1.00
O892   O     0.70833   0.78789   0.28803   0.00000  Uiso   1.00
O893   O     0.79167   0.70078   0.28431   0.00000  Uiso   1.00
O894   O     0.79167   0.58711   0.32172   0.00000  Uiso   1.00
O895   O     0.95833   0.71211   0.28803   0.00000  Uiso   1.00
O896   O     0.87500   0.79922   0.36660   0.00000  Uiso   1.00
O897   O     0.87500   0.53789   0.28058   0.00000  Uiso   1.00
O898   O     0.87500   0.66289   0.32918   0.00000  Uiso   1.00
O899   O     0.95833   0.82578   0.32545   0.00000  Uiso   1.00
O900   O     0.95833   0.71211   0.36287   0.00000  Uiso   1.00
Cr901  Cr    0.65918   0.62500   0.20201   0.00000  Uiso   1.00
Cr902  Cr    0.59082   0.50000   0.16086   0.00000  Uiso   1.00
Cr903  Cr    0.50749   0.62500   0.20201   0.00000  Uiso   1.00
Cr904  Cr    0.57585   0.50000   0.24316   0.00000  Uiso   1.00
Cr905  Cr    0.82585   0.50000   0.24316   0.00000  Uiso   1.00
Cr906  Cr    0.75749   0.62500   0.20201   0.00000  Uiso   1.00
Cr907  Cr    0.67415   0.50000   0.24316   0.00000  Uiso   1.00
Cr908  Cr    0.74251   0.50000   0.16086   0.00000  Uiso   1.00
Cr909  Cr    0.99251   0.50000   0.16086   0.00000  Uiso   1.00
Cr910  Cr    0.92415   0.50000   0.24316   0.00000  Uiso   1.00
Cr911  Cr    0.84082   0.50000   0.16086   0.00000  Uiso   1.00
Cr912  Cr    0.90918   0.62500   0.20201   0.00000  Uiso   1.00
O913   O     0.62500   0.46211   0.20574   0.00000  Uiso   1.00
O914   O     0.54167   0.42422   0.16086   0.00000  Uiso   1.00
O915   O     0.54167   0.53789   0.19828   0.00000  Uiso   1.00
O916   O     0.54167   0.53789   0.12344   0.00000  Uiso   1.00
O917   O     0.62500   0.57578   0.24316   0.00000  Uiso   1.00
O918   O     0.62500   0.58711   0.15713   0.00000  Uiso   1.00
O919   O     0.79167   0.46211   0.12344   0.00000  Uiso   1.00
O920   O     0.70833   0.54922   0.20201   0.00000  Uiso   1.00
O921   O     0.70833   0.66289   0.23943   0.00000  Uiso   1.00
O922   O     0.70833   0.66289   0.16459   0.00000  Uiso   1.00
O923   O     0.79167   0.57578   0.16086   0.00000  Uiso   1.00
O924   O     0.79167   0.46211   0.19828   0.00000  Uiso   1.00
O925   O     0.95833   0.58711   0.16459   0.00000  Uiso   1.00
O926   O     0.87500   0.67422   0.24316   0.00000  Uiso   1.00
O927   O     0.87500   0.41289   0.15713   0.00000  Uiso   1.00
O928   O     0.87500   0.53789   0.20574   0.00000  Uiso   1.00
O929   O     0.95833   0.70078   0.20201   0.00000  Uiso   1.00
O930   O     0.95833   0.58711   0.23943   0.00000  Uiso   1.00
Cr931  Cr    0.65918   0.50000   0.07857   0.00000  Uiso   1.00
Cr932  Cr    0.59082   0.37500   0.03742   0.00000  Uiso   1.00
Cr933  Cr    0.50749   0.50000   0.07857   0.00000  Uiso   1.00
Cr934  Cr    0.57585   0.37500   0.11971   0.00000  Uiso   1.00
Cr935  Cr    0.82585   0.37500   0.11971   0.00000  Uiso   1.00
Cr936  Cr    0.75749   0.50000   0.07857   0.00000  Uiso   1.00
Cr937  Cr    0.67415   0.37500   0.11971   0.00000  Uiso   1.00
Cr938  Cr    0.74251   0.37500   0.03742   0.00000  Uiso   1.00
Cr939  Cr    0.99251   0.37500   0.03742   0.00000  Uiso   1.00
Cr940  Cr    0.92415   0.37500   0.11971   0.00000  Uiso   1.00
Cr941  Cr    0.84082   0.37500   0.03742   0.00000  Uiso   1.00
Cr942  Cr    0.90918   0.50000   0.07857   0.00000  Uiso   1.00
O943   O     0.62500   0.33711   0.08230   0.00000  Uiso   1.00
O944   O     0.54167   0.29922   0.03742   0.00000  Uiso   1.00
O945   O     0.54167   0.41289   0.07484   0.00000  Uiso   1.00
O946   O     0.54167   0.41289   0.00000   0.00000  Uiso   1.00
O947   O     0.62500   0.45078   0.11971   0.00000  Uiso   1.00
O948   O     0.62500   0.46211   0.03369   0.00000  Uiso   1.00
O949   O     0.79167   0.33711   0.00000   0.00000  Uiso   1.00
O950   O     0.70833   0.42422   0.07857   0.00000  Uiso   1.00
O951   O     0.70833   0.53789   0.11599   0.00000  Uiso   1.00
O952   O     0.70833   0.53789   0.04115   0.00000  Uiso   1.00
O953   O     0.79167   0.45078   0.03742   0.00000  Uiso   1.00
O954   O     0.79167   0.33711   0.07484   0.00000  Uiso   1.00
O955   O     0.95833   0.46211   0.04115   0.00000  Uiso   1.00
O956   O     0.87500   0.54922   0.11971   0.00000  Uiso   1.00
O957   O     0.87500   0.28789   0.03369   0.00000  Uiso   1.00
O958   O     0.87500   0.41289   0.08230   0.00000  Uiso   1.00
O959   O     0.95833   0.57578   0.07857   0.00000  Uiso   1.00
O960   O     0.95833   0.46211   0.11599   0.00000  Uiso   1.00
Fe961  Fe    0.15423   0.02469   0.56322   0.01267  Uiso   1.00
Fe962  Fe    0.25658   0.02469   0.56322   0.01267  Uiso   1.00
Fe963  Fe    0.35892   0.02469   0.56322   0.01267  Uiso   1.00
Fe964  Fe    0.46127   0.02469   0.56322   0.01267  Uiso   1.00
Fe965  Fe    0.05188   0.16621   0.56322   0.01267  Uiso   1.00
Fe966  Fe    0.10306   0.09545   0.52287   0.01267  Uiso   1.00
Fe967  Fe    0.15423   0.16621   0.56322   0.01267  Uiso   1.00
Fe968  Fe    0.20540   0.09545   0.52287   0.01267  Uiso   1.00
Fe969  Fe    0.25658   0.16621   0.56322   0.01267  Uiso   1.00
Fe970  Fe    0.30775   0.09545   0.52287   0.01267  Uiso   1.00
Fe971  Fe    0.35892   0.16621   0.56322   0.01267  Uiso   1.00
Fe972  Fe    0.41010   0.09545   0.52287   0.01267  Uiso   1.00
Fe973  Fe    0.46127   0.16621   0.56322   0.01267  Uiso   1.00
Fe974  Fe    0.05188   0.30773   0.56322   0.01267  Uiso   1.00
Fe975  Fe    0.10306   0.23697   0.52287   0.01267  Uiso   1.00
Fe976  Fe    0.15423   0.30773   0.56322   0.01267  Uiso   1.00
Fe977  Fe    0.20540   0.23697   0.52287   0.01267  Uiso   1.00
Fe978  Fe    0.25658   0.30773   0.56322   0.01267  Uiso   1.00
Fe979  Fe    0.30775   0.23697   0.52287   0.01267  Uiso   1.00
Fe980  Fe    0.35892   0.30773   0.56322   0.01267  Uiso   1.00
Fe981  Fe    0.41010   0.23697   0.52287   0.01267  Uiso   1.00
Fe982  Fe    0.46127   0.30773   0.56322   0.01267  Uiso   1.00
Fe983  Fe    0.05188   0.44925   0.56322   0.01267  Uiso   1.00
Fe984  Fe    0.10306   0.37849   0.52287   0.01267  Uiso   1.00
Fe985  Fe    0.15423   0.44925   0.56322   0.01267  Uiso   1.00
Fe986  Fe    0.20540   0.37849   0.52287   0.01267  Uiso   1.00
Fe987  Fe    0.25658   0.44925   0.56322   0.01267  Uiso   1.00
Fe988  Fe    0.30775   0.37849   0.52287   0.01267  Uiso   1.00
Fe989  Fe    0.35892   0.44925   0.56322   0.01267  Uiso   1.00
Fe990  Fe    0.41010   0.37849   0.52287   0.01267  Uiso   1.00
Fe991  Fe    0.46127   0.44925   0.56322   0.01267  Uiso   1.00
Fe992  Fe    0.05188   0.59077   0.56322   0.01267  Uiso   1.00
Fe993  Fe    0.10306   0.52001   0.52287   0.01267  Uiso   1.00
Fe994  Fe    0.15423   0.59077   0.56322   0.01267  Uiso   1.00
Fe995  Fe    0.20540   0.52001   0.52287   0.01267  Uiso   1.00
Fe996  Fe    0.25658   0.59077   0.56322   0.01267  Uiso   1.00
Fe997  Fe    0.30775   0.52001   0.52287   0.01267  Uiso   1.00
Fe998  Fe    0.35892   0.59077   0.56322   0.01267  Uiso   1.00
Fe999  Fe    0.41010   0.52001   0.52287   0.01267  Uiso   1.00
Fe1000 Fe    0.46127   0.59077   0.56322   0.01267  Uiso   1.00
Fe1001 Fe    0.05188   0.73229   0.56322   0.01267  Uiso   1.00
Fe1002 Fe    0.10306   0.66153   0.52287   0.01267  Uiso   1.00
Fe1003 Fe    0.15423   0.73229   0.56322   0.01267  Uiso   1.00
Fe1004 Fe    0.20540   0.66153   0.52287   0.01267  Uiso   1.00
Fe1005 Fe    0.25658   0.73229   0.56322   0.01267  Uiso   1.00
Fe1006 Fe    0.30775   0.66153   0.52287   0.01267  Uiso   1.00
Fe1007 Fe    0.35892   0.73229   0.56322   0.01267  Uiso   1.00
Fe1008 Fe    0.41010   0.66153   0.52287   0.01267  Uiso   1.00
Fe1009 Fe    0.46127   0.73229   0.56322   0.01267  Uiso   1.00
Fe1010 Fe    0.15423   0.02469   0.64391   0.01267  Uiso   1.00
Fe1011 Fe    0.25658   0.02469   0.64391   0.01267  Uiso   1.00
Fe1012 Fe    0.35892   0.02469   0.64391   0.01267  Uiso   1.00
Fe1013 Fe    0.46127   0.02469   0.64391   0.01267  Uiso   1.00
Fe1014 Fe    0.05188   0.16621   0.64391   0.01267  Uiso   1.00
Fe1015 Fe    0.10306   0.09545   0.60356   0.01267  Uiso   1.00
Fe1016 Fe    0.15423   0.16621   0.64391   0.01267  Uiso   1.00
Fe1017 Fe    0.20540   0.09545   0.60356   0.01267  Uiso   1.00
Fe1018 Fe    0.25658   0.16621   0.64391   0.01267  Uiso   1.00
Fe1019 Fe    0.30775   0.09545   0.60356   0.01267  Uiso   1.00
Fe1020 Fe    0.35892   0.16621   0.64391   0.01267  Uiso   1.00
Fe1021 Fe    0.41010   0.09545   0.60356   0.01267  Uiso   1.00
Fe1022 Fe    0.46127   0.16621   0.64391   0.01267  Uiso   1.00
Fe1023 Fe    0.05188   0.30773   0.64391   0.01267  Uiso   1.00
Fe1024 Fe    0.10306   0.23697   0.60356   0.01267  Uiso   1.00
Fe1025 Fe    0.15423   0.30773   0.64391   0.01267  Uiso   1.00
Fe1026 Fe    0.20540   0.23697   0.60356   0.01267  Uiso   1.00
Fe1027 Fe    0.25658   0.30773   0.64391   0.01267  Uiso   1.00
Fe1028 Fe    0.30775   0.23697   0.60356   0.01267  Uiso   1.00
Fe1029 Fe    0.35892   0.30773   0.64391   0.01267  Uiso   1.00
Fe1030 Fe    0.41010   0.23697   0.60356   0.01267  Uiso   1.00
Fe1031 Fe    0.46127   0.30773   0.64391   0.01267  Uiso   1.00
Fe1032 Fe    0.05188   0.44925   0.64391   0.01267  Uiso   1.00
Fe1033 Fe    0.10306   0.37849   0.60356   0.01267  Uiso   1.00
Fe1034 Fe    0.15423   0.44925   0.64391   0.01267  Uiso   1.00
Fe1035 Fe    0.20540   0.37849   0.60356   0.01267  Uiso   1.00
Fe1036 Fe    0.25658   0.44925   0.64391   0.01267  Uiso   1.00
Fe1037 Fe    0.30775   0.37849   0.60356   0.01267  Uiso   1.00
Fe1038 Fe    0.35892   0.44925   0.64391   0.01267  Uiso   1.00
Fe1039 Fe    0.41010   0.37849   0.60356   0.01267  Uiso   1.00
Fe1040 Fe    0.46127   0.44925   0.64391   0.01267  Uiso   1.00
Fe1041 Fe    0.05188   0.59077   0.64391   0.01267  Uiso   1.00
Fe1042 Fe    0.10306   0.52001   0.60356   0.01267  Uiso   1.00
Fe1043 Fe    0.15423   0.59077   0.64391   0.01267  Uiso   1.00
Fe1044 Fe    0.20540   0.52001   0.60356   0.01267  Uiso   1.00
Fe1045 Fe    0.25658   0.59077   0.64391   0.01267  Uiso   1.00
Fe1046 Fe    0.30775   0.52001   0.60356   0.01267  Uiso   1.00
Fe1047 Fe    0.35892   0.59077   0.64391   0.01267  Uiso   1.00
Fe1048 Fe    0.41010   0.52001   0.60356   0.01267  Uiso   1.00
Fe1049 Fe    0.46127   0.59077   0.64391   0.01267  Uiso   1.00
Fe1050 Fe    0.05188   0.73229   0.64391   0.01267  Uiso   1.00
Fe1051 Fe    0.10306   0.66153   0.60356   0.01267  Uiso   1.00
Fe1052 Fe    0.15423   0.73229   0.64391   0.01267  Uiso   1.00
Fe1053 Fe    0.20540   0.66153   0.60356   0.01267  Uiso   1.00
Fe1054 Fe    0.25658   0.73229   0.64391   0.01267  Uiso   1.00
Fe1055 Fe    0.30775   0.66153   0.60356   0.01267  Uiso   1.00
Fe1056 Fe    0.35892   0.73229   0.64391   0.01267  Uiso   1.00
Fe1057 Fe    0.41010   0.66153   0.60356   0.01267  Uiso   1.00
Fe1058 Fe    0.46127   0.73229   0.64391   0.01267  Uiso   1.00
Fe1059 Fe    0.05188   0.02469   0.72460   0.01267  Uiso   1.00
Fe1060 Fe    0.15423   0.02469   0.72460   0.01267  Uiso   1.00
Fe1061 Fe    0.25658   0.02469   0.72460   0.01267  Uiso   1.00
Fe1062 Fe    0.35892   0.02469   0.72460   0.01267  Uiso   1.00
Fe1063 Fe    0.46127   0.02469   0.72460   0.01267  Uiso   1.00
Fe1064 Fe    0.05188   0.16621   0.72460   0.01267  Uiso   1.00
Fe1065 Fe    0.10306   0.09545   0.68425   0.01267  Uiso   1.00
Fe1066 Fe    0.15423   0.16621   0.72460   0.01267  Uiso   1.00
Fe1067 Fe    0.20540   0.09545   0.68425   0.01267  Uiso   1.00
Fe1068 Fe    0.25658   0.16621   0.72460   0.01267  Uiso   1.00
Fe1069 Fe    0.30775   0.09545   0.68425   0.01267  Uiso   1.00
Fe1070 Fe    0.35892   0.16621   0.72460   0.01267  Uiso   1.00
Fe1071 Fe    0.41010   0.09545   0.68425   0.01267  Uiso   1.00
Fe1072 Fe    0.46127   0.16621   0.72460   0.01267  Uiso   1.00
Fe1073 Fe    0.05188   0.30773   0.72460   0.01267  Uiso   1.00
Fe1074 Fe    0.10306   0.23697   0.68425   0.01267  Uiso   1.00
Fe1075 Fe    0.15423   0.30773   0.72460   0.01267  Uiso   1.00
Fe1076 Fe    0.20540   0.23697   0.68425   0.01267  Uiso   1.00
Fe1077 Fe    0.25658   0.30773   0.72460   0.01267  Uiso   1.00
Fe1078 Fe    0.30775   0.23697   0.68425   0.01267  Uiso   1.00
Fe1079 Fe    0.35892   0.30773   0.72460   0.01267  Uiso   1.00
Fe1080 Fe    0.41010   0.23697   0.68425   0.01267  Uiso   1.00
Fe1081 Fe    0.46127   0.30773   0.72460   0.01267  Uiso   1.00
Fe1082 Fe    0.05188   0.44925   0.72460   0.01267  Uiso   1.00
Fe1083 Fe    0.10306   0.37849   0.68425   0.01267  Uiso   1.00
Fe1084 Fe    0.15423   0.44925   0.72460   0.01267  Uiso   1.00
Fe1085 Fe    0.20540   0.37849   0.68425   0.01267  Uiso   1.00
Fe1086 Fe    0.25658   0.44925   0.72460   0.01267  Uiso   1.00
Fe1087 Fe    0.30775   0.37849   0.68425   0.01267  Uiso   1.00
Fe1088 Fe    0.35892   0.44925   0.72460   0.01267  Uiso   1.00
Fe1089 Fe    0.41010   0.37849   0.68425   0.01267  Uiso   1.00
Fe1090 Fe    0.46127   0.44925   0.72460   0.01267  Uiso   1.00
Fe1091 Fe    0.05188   0.59077   0.72460   0.01267  Uiso   1.00
Fe1092 Fe    0.10306   0.52001   0.68425   0.01267  Uiso   1.00
Fe1093 Fe    0.15423   0.59077   0.72460   0.01267  Uiso   1.00
Fe1094 Fe    0.20540   0.52001   0.68425   0.01267  Uiso   1.00
Fe1095 Fe    0.25658   0.59077   0.72460   0.01267  Uiso   1.00
Fe1096 Fe    0.30775   0.52001   0.68425   0.01267  Uiso   1.00
Fe1097 Fe    0.35892   0.59077   0.72460   0.01267  Uiso   1.00
Fe1098 Fe    0.41010   0.52001   0.68425   0.01267  Uiso   1.00
Fe1099 Fe    0.46127   0.59077   0.72460   0.01267  Uiso   1.00
Fe1100 Fe    0.05188   0.73229   0.72460   0.01267  Uiso   1.00
Fe1101 Fe    0.10306   0.66153   0.68425   0.01267  Uiso   1.00
Fe1102 Fe    0.15423   0.73229   0.72460   0.01267  Uiso   1.00
Fe1103 Fe    0.20540   0.66153   0.68425   0.01267  Uiso   1.00
Fe1104 Fe    0.25658   0.73229   0.72460   0.01267  Uiso   1.00
Fe1105 Fe    0.30775   0.66153   0.68425   0.01267  Uiso   1.00
Fe1106 Fe    0.35892   0.73229   0.72460   0.01267  Uiso   1.00
Fe1107 Fe    0.41010   0.66153   0.68425   0.01267  Uiso   1.00
Fe1108 Fe    0.46127   0.73229   0.72460   0.01267  Uiso   1.00
Fe1109 Fe    0.05188   0.02469   0.80529   0.01267  Uiso   1.00
Fe1110 Fe    0.15423   0.02469   0.80529   0.01267  Uiso   1.00
Fe1111 Fe    0.25658   0.02469   0.80529   0.01267  Uiso   1.00
Fe1112 Fe    0.35892   0.02469   0.80529   0.01267  Uiso   1.00
Fe1113 Fe    0.46127   0.02469   0.80529   0.01267  Uiso   1.00
Fe1114 Fe    0.05188   0.16621   0.80529   0.01267  Uiso   1.00
Fe1115 Fe    0.10306   0.09545   0.76494   0.01267  Uiso   1.00
Fe1116 Fe    0.15423   0.16621   0.80529   0.01267  Uiso   1.00
Fe1117 Fe    0.20540   0.09545   0.76494   0.01267  Uiso   1.00
Fe1118 Fe    0.25658   0.16621   0.80529   0.01267  Uiso   1.00
Fe1119 Fe    0.30775   0.09545   0.76494   0.01267  Uiso   1.00
Fe1120 Fe    0.35892   0.16621   0.80529   0.01267  Uiso   1.00
Fe1121 Fe    0.41010   0.09545   0.76494   0.01267  Uiso   1.00
Fe1122 Fe    0.46127   0.16621   0.80529   0.01267  Uiso   1.00
Fe1123 Fe    0.05188   0.30773   0.80529   0.01267  Uiso   1.00
Fe1124 Fe    0.10306   0.23697   0.76494   0.01267  Uiso   1.00
Fe1125 Fe    0.15423   0.30773   0.80529   0.01267  Uiso   1.00
Fe1126 Fe    0.20540   0.23697   0.76494   0.01267  Uiso   1.00
Fe1127 Fe    0.25658   0.30773   0.80529   0.01267  Uiso   1.00
Fe1128 Fe    0.30775   0.23697   0.76494   0.01267  Uiso   1.00
Fe1129 Fe    0.35892   0.30773   0.80529   0.01267  Uiso   1.00
Fe1130 Fe    0.41010   0.23697   0.76494   0.01267  Uiso   1.00
Fe1131 Fe    0.46127   0.30773   0.80529   0.01267  Uiso   1.00
Fe1132 Fe    0.05188   0.44925   0.80529   0.01267  Uiso   1.00
Fe1133 Fe    0.10306   0.37849   0.76494   0.01267  Uiso   1.00
Fe1134 Fe    0.15423   0.44925   0.80529   0.01267  Uiso   1.00
Fe1135 Fe    0.20540   0.37849   0.76494   0.01267  Uiso   1.00
Fe1136 Fe    0.25658   0.44925   0.80529   0.01267  Uiso   1.00
Fe1137 Fe    0.30775   0.37849   0.76494   0.01267  Uiso   1.00
Fe1138 Fe    0.35892   0.44925   0.80529   0.01267  Uiso   1.00
Fe1139 Fe    0.41010   0.37849   0.76494   0.01267  Uiso   1.00
Fe1140 Fe    0.46127   0.44925   0.80529   0.01267  Uiso   1.00
Fe1141 Fe    0.05188   0.59077   0.80529   0.01267  Uiso   1.00
Fe1142 Fe    0.10306   0.52001   0.76494   0.01267  Uiso   1.00
Fe1143 Fe    0.15423   0.59077   0.80529   0.01267  Uiso   1.00
Fe1144 Fe    0.20540   0.52001   0.76494   0.01267  Uiso   1.00
Fe1145 Fe    0.25658   0.59077   0.80529   0.01267  Uiso   1.00
Fe1146 Fe    0.30775   0.52001   0.76494   0.01267  Uiso   1.00
Fe1147 Fe    0.35892   0.59077   0.80529   0.01267  Uiso   1.00
Fe1148 Fe    0.41010   0.52001   0.76494   0.01267  Uiso   1.00
Fe1149 Fe    0.46127   0.59077   0.80529   0.01267  Uiso   1.00
Fe1150 Fe    0.05188   0.73229   0.80529   0.01267  Uiso   1.00
Fe1151 Fe    0.10306   0.66153   0.76494   0.01267  Uiso   1.00
Fe1152 Fe    0.15423   0.73229   0.80529   0.01267  Uiso   1.00
Fe1153 Fe    0.20540   0.66153   0.76494   0.01267  Uiso   1.00
Fe1154 Fe    0.25658   0.73229   0.80529   0.01267  Uiso   1.00
Fe1155 Fe    0.30775   0.66153   0.76494   0.01267  Uiso   1.00
Fe1156 Fe    0.35892   0.73229   0.80529   0.01267  Uiso   1.00
Fe1157 Fe    0.41010   0.66153   0.76494   0.01267  Uiso   1.00
Fe1158 Fe    0.46127   0.73229   0.80529   0.01267  Uiso   1.00
Fe1159 Fe    0.05188   0.02469   0.88598   0.01267  Uiso   1.00
Fe1160 Fe    0.15423   0.02469   0.88598   0.01267  Uiso   1.00
Fe1161 Fe    0.25658   0.02469   0.88598   0.01267  Uiso   1.00
Fe1162 Fe    0.35892   0.02469   0.88598   0.01267  Uiso   1.00
Fe1163 Fe    0.46127   0.02469   0.88598   0.01267  Uiso   1.00
Fe1164 Fe    0.05188   0.16621   0.88598   0.01267  Uiso   1.00
Fe1165 Fe    0.10306   0.09545   0.84563   0.01267  Uiso   1.00
Fe1166 Fe    0.15423   0.16621   0.88598   0.01267  Uiso   1.00
Fe1167 Fe    0.20540   0.09545   0.84563   0.01267  Uiso   1.00
Fe1168 Fe    0.25658   0.16621   0.88598   0.01267  Uiso   1.00
Fe1169 Fe    0.30775   0.09545   0.84563   0.01267  Uiso   1.00
Fe1170 Fe    0.35892   0.16621   0.88598   0.01267  Uiso   1.00
Fe1171 Fe    0.41010   0.09545   0.84563   0.01267  Uiso   1.00
Fe1172 Fe    0.46127   0.16621   0.88598   0.01267  Uiso   1.00
Fe1173 Fe    0.05188   0.30773   0.88598   0.01267  Uiso   1.00
Fe1174 Fe    0.10306   0.23697   0.84563   0.01267  Uiso   1.00
Fe1175 Fe    0.15423   0.30773   0.88598   0.01267  Uiso   1.00
Fe1176 Fe    0.20540   0.23697   0.84563   0.01267  Uiso   1.00
Fe1177 Fe    0.25658   0.30773   0.88598   0.01267  Uiso   1.00
Fe1178 Fe    0.30775   0.23697   0.84563   0.01267  Uiso   1.00
Fe1179 Fe    0.35892   0.30773   0.88598   0.01267  Uiso   1.00
Fe1180 Fe    0.41010   0.23697   0.84563   0.01267  Uiso   1.00
Fe1181 Fe    0.46127   0.30773   0.88598   0.01267  Uiso   1.00
Fe1182 Fe    0.05188   0.44925   0.88598   0.01267  Uiso   1.00
Fe1183 Fe    0.10306   0.37849   0.84563   0.01267  Uiso   1.00
Fe1184 Fe    0.15423   0.44925   0.88598   0.01267  Uiso   1.00
Fe1185 Fe    0.20540   0.37849   0.84563   0.01267  Uiso   1.00
Fe1186 Fe    0.25658   0.44925   0.88598   0.01267  Uiso   1.00
Fe1187 Fe    0.30775   0.37849   0.84563   0.01267  Uiso   1.00
Fe1188 Fe    0.35892   0.44925   0.88598   0.01267  Uiso   1.00
Fe1189 Fe    0.41010   0.37849   0.84563   0.01267  Uiso   1.00
Fe1190 Fe    0.46127   0.44925   0.88598   0.01267  Uiso   1.00
Fe1191 Fe    0.05188   0.59077   0.88598   0.01267  Uiso   1.00
Fe1192 Fe    0.10306   0.52001   0.84563   0.01267  Uiso   1.00
Fe1193 Fe    0.15423   0.59077   0.88598   0.01267  Uiso   1.00
Fe1194 Fe    0.20540   0.52001   0.84563   0.01267  Uiso   1.00
Fe1195 Fe    0.25658   0.59077   0.88598   0.01267  Uiso   1.00
Fe1196 Fe    0.30775   0.52001   0.84563   0.01267  Uiso   1.00
Fe1197 Fe    0.35892   0.59077   0.88598   0.01267  Uiso   1.00
Fe1198 Fe    0.41010   0.52001   0.84563   0.01267  Uiso   1.00
Fe1199 Fe    0.46127   0.59077   0.88598   0.01267  Uiso   1.00
Fe1200 Fe    0.05188   0.73229   0.88598   0.01267  Uiso   1.00
Fe1201 Fe    0.10306   0.66153   0.84563   0.01267  Uiso   1.00
Fe1202 Fe    0.15423   0.73229   0.88598   0.01267  Uiso   1.00
Fe1203 Fe    0.20540   0.66153   0.84563   0.01267  Uiso   1.00
Fe1204 Fe    0.25658   0.73229   0.88598   0.01267  Uiso   1.00
Fe1205 Fe    0.30775   0.66153   0.84563   0.01267  Uiso   1.00
Fe1206 Fe    0.35892   0.73229   0.88598   0.01267  Uiso   1.00
Fe1207 Fe    0.41010   0.66153   0.84563   0.01267  Uiso   1.00
Fe1208 Fe    0.46127   0.73229   0.88598   0.01267  Uiso   1.00
Fe1209 Fe    0.05188   0.02469   0.96667   0.01267  Uiso   1.00
Fe1210 Fe    0.15423   0.02469   0.96667   0.01267  Uiso   1.00
Fe1211 Fe    0.25658   0.02469   0.96667   0.01267  Uiso   1.00
Fe1212 Fe    0.35892   0.02469   0.96667   0.01267  Uiso   1.00
Fe1213 Fe    0.46127   0.02469   0.96667   0.01267  Uiso   1.00
Fe1214 Fe    0.05188   0.16621   0.96667   0.01267  Uiso   1.00
Fe1215 Fe    0.10306   0.09545   0.92632   0.01267  Uiso   1.00
Fe1216 Fe    0.15423   0.16621   0.96667   0.01267  Uiso   1.00
Fe1217 Fe    0.20540   0.09545   0.92632   0.01267  Uiso   1.00
Fe1218 Fe    0.25658   0.16621   0.96667   0.01267  Uiso   1.00
Fe1219 Fe    0.30775   0.09545   0.92632   0.01267  Uiso   1.00
Fe1220 Fe    0.35892   0.16621   0.96667   0.01267  Uiso   1.00
Fe1221 Fe    0.41010   0.09545   0.92632   0.01267  Uiso   1.00
Fe1222 Fe    0.46127   0.16621   0.96667   0.01267  Uiso   1.00
Fe1223 Fe    0.05188   0.30773   0.96667   0.01267  Uiso   1.00
Fe1224 Fe    0.10306   0.23697   0.92632   0.01267  Uiso   1.00
Fe1225 Fe    0.15423   0.30773   0.96667   0.01267  Uiso   1.00
Fe1226 Fe    0.20540   0.23697   0.92632   0.01267  Uiso   1.00
Fe1227 Fe    0.25658   0.30773   0.96667   0.01267  Uiso   1.00
Fe1228 Fe    0.30775   0.23697   0.92632   0.01267  Uiso   1.00
Fe1229 Fe    0.35892   0.30773   0.96667   0.01267  Uiso   1.00
Fe1230 Fe    0.41010   0.23697   0.92632   0.01267  Uiso   1.00
Fe1231 Fe    0.46127   0.30773   0.96667   0.01267  Uiso   1.00
Fe1232 Fe    0.05188   0.44925   0.96667   0.01267  Uiso   1.00
Fe1233 Fe    0.10306   0.37849   0.92632   0.01267  Uiso   1.00
Fe1234 Fe    0.15423   0.44925   0.96667   0.01267  Uiso   1.00
Fe1235 Fe    0.20540   0.37849   0.92632   0.01267  Uiso   1.00
Fe1236 Fe    0.25658   0.44925   0.96667   0.01267  Uiso   1.00
Fe1237 Fe    0.30775   0.37849   0.92632   0.01267  Uiso   1.00
Fe1238 Fe    0.35892   0.44925   0.96667   0.01267  Uiso   1.00
Fe1239 Fe    0.41010   0.37849   0.92632   0.01267  Uiso   1.00
Fe1240 Fe    0.46127   0.44925   0.96667   0.01267  Uiso   1.00
Fe1241 Fe    0.05188   0.59077   0.96667   0.01267  Uiso   1.00
Fe1242 Fe    0.10306   0.52001   0.92632   0.01267  Uiso   1.00
Fe1243 Fe    0.15423   0.59077   0.96667   0.01267  Uiso   1.00
Fe1244 Fe    0.20540   0.52001   0.92632   0.01267  Uiso   1.00
Fe1245 Fe    0.25658   0.59077   0.96667   0.01267  Uiso   1.00
Fe1246 Fe    0.30775   0.52001   0.92632   0.01267  Uiso   1.00
Fe1247 Fe    0.35892   0.59077   0.96667   0.01267  Uiso   1.00
Fe1248 Fe    0.41010   0.52001   0.92632   0.01267  Uiso   1.00
Fe1249 Fe    0.46127   0.59077   0.96667   0.01267  Uiso   1.00
Fe1250 Fe    0.05188   0.73229   0.96667   0.01267  Uiso   1.00
Fe1251 Fe    0.10306   0.66153   0.92632   0.01267  Uiso   1.00
Fe1252 Fe    0.15423   0.73229   0.96667   0.01267  Uiso   1.00
Fe1253 Fe    0.20540   0.66153   0.92632   0.01267  Uiso   1.00
Fe1254 Fe    0.25658   0.73229   0.96667   0.01267  Uiso   1.00
Fe1255 Fe    0.30775   0.66153   0.92632   0.01267  Uiso   1.00
Fe1256 Fe    0.35892   0.73229   0.96667   0.01267  Uiso   1.00
Fe1257 Fe    0.41010   0.66153   0.92632   0.01267  Uiso   1.00
Fe1258 Fe    0.46127   0.73229   0.96667   0.01267  Uiso   1.00
Fe1259 Fe    0.56362   0.02469   0.56322   0.01267  Uiso   1.00
Fe1260 Fe    0.66597   0.02469   0.56322   0.01267  Uiso   1.00
Fe1261 Fe    0.76831   0.02469   0.56322   0.01267  Uiso   1.00
Fe1262 Fe    0.87066   0.02469   0.56322   0.01267  Uiso   1.00
Fe1263 Fe    0.97301   0.02469   0.56322   0.01267  Uiso   1.00
Fe1264 Fe    0.51245   0.09545   0.52287   0.01267  Uiso   1.00
Fe1265 Fe    0.56362   0.16621   0.56322   0.01267  Uiso   1.00
Fe1266 Fe    0.61479   0.09545   0.52287   0.01267  Uiso   1.00
Fe1267 Fe    0.66597   0.16621   0.56322   0.01267  Uiso   1.00
Fe1268 Fe    0.71714   0.09545   0.52287   0.01267  Uiso   1.00
Fe1269 Fe    0.76831   0.16621   0.56322   0.01267  Uiso   1.00
Fe1270 Fe    0.81949   0.09545   0.52287   0.01267  Uiso   1.00
Fe1271 Fe    0.87066   0.16621   0.56322   0.01267  Uiso   1.00
Fe1272 Fe    0.92183   0.09545   0.52287   0.01267  Uiso   1.00
Fe1273 Fe    0.97301   0.16621   0.56322   0.01267  Uiso   1.00
Fe1274 Fe    0.51245   0.23697   0.52287   0.01267  Uiso   1.00
Fe1275 Fe    0.56362   0.30773   0.56322   0.01267  Uiso   1.00
Fe1276 Fe    0.61479   0.23697   0.52287   0.01267  Uiso   1.00
Fe1277 Fe    0.66597   0.30773   0.56322   0.01267  Uiso   1.00
Fe1278 Fe    0.71714   0.23697   0.52287   0.01267  Uiso   1.00
Fe1279 Fe    0.76831   0.30773   0.56322   0.01267  Uiso   1.00
Fe1280 Fe    0.81949   0.23697   0.52287   0.01267  Uiso   1.00
Fe1281 Fe    0.87066   0.30773   0.56322   0.01267  Uiso   1.00
Fe1282 Fe    0.92183   0.23697   0.52287   0.01267  Uiso   1.00
Fe1283 Fe    0.97301   0.30773   0.56322   0.01267  Uiso   1.00
Fe1284 Fe    0.51245   0.37849   0.52287   0.01267  Uiso   1.00
Fe1285 Fe    0.56362   0.44925   0.56322   0.01267  Uiso   1.00
Fe1286 Fe    0.61479   0.37849   0.52287   0.01267  Uiso   1.00
Fe1287 Fe    0.66597   0.44925   0.56322   0.01267  Uiso   1.00
Fe1288 Fe    0.71714   0.37849   0.52287   0.01267  Uiso   1.00
Fe1289 Fe    0.76831   0.44925   0.56322   0.01267  Uiso   1.00
Fe1290 Fe    0.81949   0.37849   0.52287   0.01267  Uiso   1.00
Fe1291 Fe    0.87066   0.44925   0.56322   0.01267  Uiso   1.00
Fe1292 Fe    0.92183   0.37849   0.52287   0.01267  Uiso   1.00
Fe1293 Fe    0.97301   0.44925   0.56322   0.01267  Uiso   1.00
Fe1294 Fe    0.51245   0.52001   0.52287   0.01267  Uiso   1.00
Fe1295 Fe    0.56362   0.59077   0.56322   0.01267  Uiso   1.00
Fe1296 Fe    0.61479   0.52001   0.52287   0.01267  Uiso   1.00
Fe1297 Fe    0.66597   0.59077   0.56322   0.01267  Uiso   1.00
Fe1298 Fe    0.71714   0.52001   0.52287   0.01267  Uiso   1.00
Fe1299 Fe    0.76831   0.59077   0.56322   0.01267  Uiso   1.00
Fe1300 Fe    0.81949   0.52001   0.52287   0.01267  Uiso   1.00
Fe1301 Fe    0.87066   0.59077   0.56322   0.01267  Uiso   1.00
Fe1302 Fe    0.92183   0.52001   0.52287   0.01267  Uiso   1.00
Fe1303 Fe    0.97301   0.59077   0.56322   0.01267  Uiso   1.00
Fe1304 Fe    0.51245   0.66153   0.52287   0.01267  Uiso   1.00
Fe1305 Fe    0.56362   0.73229   0.56322   0.01267  Uiso   1.00
Fe1306 Fe    0.61479   0.66153   0.52287   0.01267  Uiso   1.00
Fe1307 Fe    0.66597   0.73229   0.56322   0.01267  Uiso   1.00
Fe1308 Fe    0.71714   0.66153   0.52287   0.01267  Uiso   1.00
Fe1309 Fe    0.76831   0.73229   0.56322   0.01267  Uiso   1.00
Fe1310 Fe    0.81949   0.66153   0.52287   0.01267  Uiso   1.00
Fe1311 Fe    0.87066   0.73229   0.56322   0.01267  Uiso   1.00
Fe1312 Fe    0.92183   0.66153   0.52287   0.01267  Uiso   1.00
Fe1313 Fe    0.97301   0.73229   0.56322   0.01267  Uiso   1.00
Fe1314 Fe    0.56362   0.02469   0.64391   0.01267  Uiso   1.00
Fe1315 Fe    0.66597   0.02469   0.64391   0.01267  Uiso   1.00
Fe1316 Fe    0.76831   0.02469   0.64391   0.01267  Uiso   1.00
Fe1317 Fe    0.87066   0.02469   0.64391   0.01267  Uiso   1.00
Fe1318 Fe    0.97301   0.02469   0.64391   0.01267  Uiso   1.00
Fe1319 Fe    0.51245   0.09545   0.60356   0.01267  Uiso   1.00
Fe1320 Fe    0.56362   0.16621   0.64391   0.01267  Uiso   1.00
Fe1321 Fe    0.61479   0.09545   0.60356   0.01267  Uiso   1.00
Fe1322 Fe    0.66597   0.16621   0.64391   0.01267  Uiso   1.00
Fe1323 Fe    0.71714   0.09545   0.60356   0.01267  Uiso   1.00
Fe1324 Fe    0.76831   0.16621   0.64391   0.01267  Uiso   1.00
Fe1325 Fe    0.81949   0.09545   0.60356   0.01267  Uiso   1.00
Fe1326 Fe    0.87066   0.16621   0.64391   0.01267  Uiso   1.00
Fe1327 Fe    0.92183   0.09545   0.60356   0.01267  Uiso   1.00
Fe1328 Fe    0.97301   0.16621   0.64391   0.01267  Uiso   1.00
Fe1329 Fe    0.51245   0.23697   0.60356   0.01267  Uiso   1.00
Fe1330 Fe    0.56362   0.30773   0.64391   0.01267  Uiso   1.00
Fe1331 Fe    0.61479   0.23697   0.60356   0.01267  Uiso   1.00
Fe1332 Fe    0.66597   0.30773   0.64391   0.01267  Uiso   1.00
Fe1333 Fe    0.71714   0.23697   0.60356   0.01267  Uiso   1.00
Fe1334 Fe    0.76831   0.30773   0.64391   0.01267  Uiso   1.00
Fe1335 Fe    0.81949   0.23697   0.60356   0.01267  Uiso   1.00
Fe1336 Fe    0.87066   0.30773   0.64391   0.01267  Uiso   1.00
Fe1337 Fe    0.92183   0.23697   0.60356   0.01267  Uiso   1.00
Fe1338 Fe    0.97301   0.30773   0.64391   0.01267  Uiso   1.00
Fe1339 Fe    0.51245   0.37849   0.60356   0.01267  Uiso   1.00
Fe1340 Fe    0.56362   0.44925   0.64391   0.01267  Uiso   1.00
Fe1341 Fe    0.61479   0.37849   0.60356   0.01267  Uiso   1.00
Fe1342 Fe    0.66597   0.44925   0.64391   0.01267  Uiso   1.00
Fe1343 Fe    0.71714   0.37849   0.60356   0.01267  Uiso   1.00
Fe1344 Fe    0.76831   0.44925   0.64391   0.01267  Uiso   1.00
Fe1345 Fe    0.81949   0.37849   0.60356   0.01267  Uiso   1.00
Fe1346 Fe    0.87066   0.44925   0.64391   0.01267  Uiso   1.00
Fe1347 Fe    0.92183   0.37849   0.60356   0.01267  Uiso   1.00
Fe1348 Fe    0.97301   0.44925   0.64391   0.01267  Uiso   1.00
Fe1349 Fe    0.51245   0.52001   0.60356   0.01267  Uiso   1.00
Fe1350 Fe    0.56362   0.59077   0.64391   0.01267  Uiso   1.00
Fe1351 Fe    0.61479   0.52001   0.60356   0.01267  Uiso   1.00
Fe1352 Fe    0.66597   0.59077   0.64391   0.01267  Uiso   1.00
Fe1353 Fe    0.71714   0.52001   0.60356   0.01267  Uiso   1.00
Fe1354 Fe    0.76831   0.59077   0.64391   0.01267  Uiso   1.00
Fe1355 Fe    0.81949   0.52001   0.60356   0.01267  Uiso   1.00
Fe1356 Fe    0.87066   0.59077   0.64391   0.01267  Uiso   1.00
Fe1357 Fe    0.92183   0.52001   0.60356   0.01267  Uiso   1.00
Fe1358 Fe    0.97301   0.59077   0.64391   0.01267  Uiso   1.00
Fe1359 Fe    0.51245   0.66153   0.60356   0.01267  Uiso   1.00
Fe1360 Fe    0.56362   0.73229   0.64391   0.01267  Uiso   1.00
Fe1361 Fe    0.61479   0.66153   0.60356   0.01267  Uiso   1.00
Fe1362 Fe    0.66597   0.73229   0.64391   0.01267  Uiso   1.00
Fe1363 Fe    0.71714   0.66153   0.60356   0.01267  Uiso   1.00
Fe1364 Fe    0.76831   0.73229   0.64391   0.01267  Uiso   1.00
Fe1365 Fe    0.81949   0.66153   0.60356   0.01267  Uiso   1.00
Fe1366 Fe    0.87066   0.73229   0.64391   0.01267  Uiso   1.00
Fe1367 Fe    0.92183   0.66153   0.60356   0.01267  Uiso   1.00
Fe1368 Fe    0.97301   0.73229   0.64391   0.01267  Uiso   1.00
Fe1369 Fe    0.56362   0.02469   0.72460   0.01267  Uiso   1.00
Fe1370 Fe    0.66597   0.02469   0.72460   0.01267  Uiso   1.00
Fe1371 Fe    0.76831   0.02469   0.72460   0.01267  Uiso   1.00
Fe1372 Fe    0.87066   0.02469   0.72460   0.01267  Uiso   1.00
Fe1373 Fe    0.97301   0.02469   0.72460   0.01267  Uiso   1.00
Fe1374 Fe    0.51245   0.09545   0.68425   0.01267  Uiso   1.00
Fe1375 Fe    0.56362   0.16621   0.72460   0.01267  Uiso   1.00
Fe1376 Fe    0.61479   0.09545   0.68425   0.01267  Uiso   1.00
Fe1377 Fe    0.66597   0.16621   0.72460   0.01267  Uiso   1.00
Fe1378 Fe    0.71714   0.09545   0.68425   0.01267  Uiso   1.00
Fe1379 Fe    0.76831   0.16621   0.72460   0.01267  Uiso   1.00
Fe1380 Fe    0.81949   0.09545   0.68425   0.01267  Uiso   1.00
Fe1381 Fe    0.87066   0.16621   0.72460   0.01267  Uiso   1.00
Fe1382 Fe    0.92183   0.09545   0.68425   0.01267  Uiso   1.00
Fe1383 Fe    0.97301   0.16621   0.72460   0.01267  Uiso   1.00
Fe1384 Fe    0.51245   0.23697   0.68425   0.01267  Uiso   1.00
Fe1385 Fe    0.56362   0.30773   0.72460   0.01267  Uiso   1.00
Fe1386 Fe    0.61479   0.23697   0.68425   0.01267  Uiso   1.00
Fe1387 Fe    0.66597   0.30773   0.72460   0.01267  Uiso   1.00
Fe1388 Fe    0.71714   0.23697   0.68425   0.01267  Uiso   1.00
Fe1389 Fe    0.76831   0.30773   0.72460   0.01267  Uiso   1.00
Fe1390 Fe    0.81949   0.23697   0.68425   0.01267  Uiso   1.00
Fe1391 Fe    0.87066   0.30773   0.72460   0.01267  Uiso   1.00
Fe1392 Fe    0.92183   0.23697   0.68425   0.01267  Uiso   1.00
Fe1393 Fe    0.97301   0.30773   0.72460   0.01267  Uiso   1.00
Fe1394 Fe    0.51245   0.37849   0.68425   0.01267  Uiso   1.00
Fe1395 Fe    0.56362   0.44925   0.72460   0.01267  Uiso   1.00
Fe1396 Fe    0.61479   0.37849   0.68425   0.01267  Uiso   1.00
Fe1397 Fe    0.66597   0.44925   0.72460   0.01267  Uiso   1.00
Fe1398 Fe    0.71714   0.37849   0.68425   0.01267  Uiso   1.00
Fe1399 Fe    0.76831   0.44925   0.72460   0.01267  Uiso   1.00
Fe1400 Fe    0.81949   0.37849   0.68425   0.01267  Uiso   1.00
Fe1401 Fe    0.87066   0.44925   0.72460   0.01267  Uiso   1.00
Fe1402 Fe    0.92183   0.37849   0.68425   0.01267  Uiso   1.00
Fe1403 Fe    0.97301   0.44925   0.72460   0.01267  Uiso   1.00
Fe1404 Fe    0.51245   0.52001   0.68425   0.01267  Uiso   1.00
Fe1405 Fe    0.56362   0.59077   0.72460   0.01267  Uiso   1.00
Fe1406 Fe    0.61479   0.52001   0.68425   0.01267  Uiso   1.00
Fe1407 Fe    0.66597   0.59077   0.72460   0.01267  Uiso   1.00
Fe1408 Fe    0.71714   0.52001   0.68425   0.01267  Uiso   1.00
Fe1409 Fe    0.76831   0.59077   0.72460   0.01267  Uiso   1.00
Fe1410 Fe    0.81949   0.52001   0.68425   0.01267  Uiso   1.00
Fe1411 Fe    0.87066   0.59077   0.72460   0.01267  Uiso   1.00
Fe1412 Fe    0.92183   0.52001   0.68425   0.01267  Uiso   1.00
Fe1413 Fe    0.97301   0.59077   0.72460   0.01267  Uiso   1.00
Fe1414 Fe    0.51245   0.66153   0.68425   0.01267  Uiso   1.00
Fe1415 Fe    0.56362   0.73229   0.72460   0.01267  Uiso   1.00
Fe1416 Fe    0.61479   0.66153   0.68425   0.01267  Uiso   1.00
Fe1417 Fe    0.66597   0.73229   0.72460   0.01267  Uiso   1.00
Fe1418 Fe    0.71714   0.66153   0.68425   0.01267  Uiso   1.00
Fe1419 Fe    0.76831   0.73229   0.72460   0.01267  Uiso   1.00
Fe1420 Fe    0.81949   0.66153   0.68425   0.01267  Uiso   1.00
Fe1421 Fe    0.87066   0.73229   0.72460   0.01267  Uiso   1.00
Fe1422 Fe    0.92183   0.66153   0.68425   0.01267  Uiso   1.00
Fe1423 Fe    0.97301   0.73229   0.72460   0.01267  Uiso   1.00
Fe1424 Fe    0.56362   0.02469   0.80529   0.01267  Uiso   1.00
Fe1425 Fe    0.66597   0.02469   0.80529   0.01267  Uiso   1.00
Fe1426 Fe    0.76831   0.02469   0.80529   0.01267  Uiso   1.00
Fe1427 Fe    0.87066   0.02469   0.80529   0.01267  Uiso   1.00
Fe1428 Fe    0.97301   0.02469   0.80529   0.01267  Uiso   1.00
Fe1429 Fe    0.51245   0.09545   0.76494   0.01267  Uiso   1.00
Fe1430 Fe    0.56362   0.16621   0.80529   0.01267  Uiso   1.00
Fe1431 Fe    0.61479   0.09545   0.76494   0.01267  Uiso   1.00
Fe1432 Fe    0.66597   0.16621   0.80529   0.01267  Uiso   1.00
Fe1433 Fe    0.71714   0.09545   0.76494   0.01267  Uiso   1.00
Fe1434 Fe    0.76831   0.16621   0.80529   0.01267  Uiso   1.00
Fe1435 Fe    0.81949   0.09545   0.76494   0.01267  Uiso   1.00
Fe1436 Fe    0.87066   0.16621   0.80529   0.01267  Uiso   1.00
Fe1437 Fe    0.92183   0.09545   0.76494   0.01267  Uiso   1.00
Fe1438 Fe    0.97301   0.16621   0.80529   0.01267  Uiso   1.00
Fe1439 Fe    0.51245   0.23697   0.76494   0.01267  Uiso   1.00
Fe1440 Fe    0.56362   0.30773   0.80529   0.01267  Uiso   1.00
Fe1441 Fe    0.61479   0.23697   0.76494   0.01267  Uiso   1.00
Fe1442 Fe    0.66597   0.30773   0.80529   0.01267  Uiso   1.00
Fe1443 Fe    0.71714   0.23697   0.76494   0.01267  Uiso   1.00
Fe1444 Fe    0.76831   0.30773   0.80529   0.01267  Uiso   1.00
Fe1445 Fe    0.81949   0.23697   0.76494   0.01267  Uiso   1.00
Fe1446 Fe    0.87066   0.30773   0.80529   0.01267  Uiso   1.00
Fe1447 Fe    0.92183   0.23697   0.76494   0.01267  Uiso   1.00
Fe1448 Fe    0.97301   0.30773   0.80529   0.01267  Uiso   1.00
Fe1449 Fe    0.51245   0.37849   0.76494   0.01267  Uiso   1.00
Fe1450 Fe    0.56362   0.44925   0.80529   0.01267  Uiso   1.00
Fe1451 Fe    0.61479   0.37849   0.76494   0.01267  Uiso   1.00
Fe1452 Fe    0.66597   0.44925   0.80529   0.01267  Uiso   1.00
Fe1453 Fe    0.71714   0.37849   0.76494   0.01267  Uiso   1.00
Fe1454 Fe    0.76831   0.44925   0.80529   0.01267  Uiso   1.00
Fe1455 Fe    0.81949   0.37849   0.76494   0.01267  Uiso   1.00
Fe1456 Fe    0.87066   0.44925   0.80529   0.01267  Uiso   1.00
Fe1457 Fe    0.92183   0.37849   0.76494   0.01267  Uiso   1.00
Fe1458 Fe    0.97301   0.44925   0.80529   0.01267  Uiso   1.00
Fe1459 Fe    0.51245   0.52001   0.76494   0.01267  Uiso   1.00
Fe1460 Fe    0.56362   0.59077   0.80529   0.01267  Uiso   1.00
Fe1461 Fe    0.61479   0.52001   0.76494   0.01267  Uiso   1.00
Fe1462 Fe    0.66597   0.59077   0.80529   0.01267  Uiso   1.00
Fe1463 Fe    0.71714   0.52001   0.76494   0.01267  Uiso   1.00
Fe1464 Fe    0.76831   0.59077   0.80529   0.01267  Uiso   1.00
Fe1465 Fe    0.81949   0.52001   0.76494   0.01267  Uiso   1.00
Fe1466 Fe    0.87066   0.59077   0.80529   0.01267  Uiso   1.00
Fe1467 Fe    0.92183   0.52001   0.76494   0.01267  Uiso   1.00
Fe1468 Fe    0.97301   0.59077   0.80529   0.01267  Uiso   1.00
Fe1469 Fe    0.51245   0.66153   0.76494   0.01267  Uiso   1.00
Fe1470 Fe    0.56362   0.73229   0.80529   0.01267  Uiso   1.00
Fe1471 Fe    0.61479   0.66153   0.76494   0.01267  Uiso   1.00
Fe1472 Fe    0.66597   0.73229   0.80529   0.01267  Uiso   1.00
Fe1473 Fe    0.71714   0.66153   0.76494   0.01267  Uiso   1.00
Fe1474 Fe    0.76831   0.73229   0.80529   0.01267  Uiso   1.00
Fe1475 Fe    0.81949   0.66153   0.76494   0.01267  Uiso   1.00
Fe1476 Fe    0.87066   0.73229   0.80529   0.01267  Uiso   1.00
Fe1477 Fe    0.92183   0.66153   0.76494   0.01267  Uiso   1.00
Fe1478 Fe    0.97301   0.73229   0.80529   0.01267  Uiso   1.00
Fe1479 Fe    0.56362   0.02469   0.88598   0.01267  Uiso   1.00
Fe1480 Fe    0.66597   0.02469   0.88598   0.01267  Uiso   1.00
Fe1481 Fe    0.76831   0.02469   0.88598   0.01267  Uiso   1.00
Fe1482 Fe    0.87066   0.02469   0.88598   0.01267  Uiso   1.00
Fe1483 Fe    0.97301   0.02469   0.88598   0.01267  Uiso   1.00
Fe1484 Fe    0.51245   0.09545   0.84563   0.01267  Uiso   1.00
Fe1485 Fe    0.56362   0.16621   0.88598   0.01267  Uiso   1.00
Fe1486 Fe    0.61479   0.09545   0.84563   0.01267  Uiso   1.00
Fe1487 Fe    0.66597   0.16621   0.88598   0.01267  Uiso   1.00
Fe1488 Fe    0.71714   0.09545   0.84563   0.01267  Uiso   1.00
Fe1489 Fe    0.76831   0.16621   0.88598   0.01267  Uiso   1.00
Fe1490 Fe    0.81949   0.09545   0.84563   0.01267  Uiso   1.00
Fe1491 Fe    0.87066   0.16621   0.88598   0.01267  Uiso   1.00
Fe1492 Fe    0.92183   0.09545   0.84563   0.01267  Uiso   1.00
Fe1493 Fe    0.97301   0.16621   0.88598   0.01267  Uiso   1.00
Fe1494 Fe    0.51245   0.23697   0.84563   0.01267  Uiso   1.00
Fe1495 Fe    0.56362   0.30773   0.88598   0.01267  Uiso   1.00
Fe1496 Fe    0.61479   0.23697   0.84563   0.01267  Uiso   1.00
Fe1497 Fe    0.66597   0.30773   0.88598   0.01267  Uiso   1.00
Fe1498 Fe    0.71714   0.23697   0.84563   0.01267  Uiso   1.00
Fe1499 Fe    0.76831   0.30773   0.88598   0.01267  Uiso   1.00
Fe1500 Fe    0.81949   0.23697   0.84563   0.01267  Uiso   1.00
Fe1501 Fe    0.87066   0.30773   0.88598   0.01267  Uiso   1.00
Fe1502 Fe    0.92183   0.23697   0.84563   0.01267  Uiso   1.00
Fe1503 Fe    0.97301   0.30773   0.88598   0.01267  Uiso   1.00
Fe1504 Fe    0.51245   0.37849   0.84563   0.01267  Uiso   1.00
Fe1505 Fe    0.56362   0.44925   0.88598   0.01267  Uiso   1.00
Fe1506 Fe    0.61479   0.37849   0.84563   0.01267  Uiso   1.00
Fe1507 Fe    0.66597   0.44925   0.88598   0.01267  Uiso   1.00
Fe1508 Fe    0.71714   0.37849   0.84563   0.01267  Uiso   1.00
Fe1509 Fe    0.76831   0.44925   0.88598   0.01267  Uiso   1.00
Fe1510 Fe    0.81949   0.37849   0.84563   0.01267  Uiso   1.00
Fe1511 Fe    0.87066   0.44925   0.88598   0.01267  Uiso   1.00
Fe1512 Fe    0.92183   0.37849   0.84563   0.01267  Uiso   1.00
Fe1513 Fe    0.97301   0.44925   0.88598   0.01267  Uiso   1.00
Fe1514 Fe    0.51245   0.52001   0.84563   0.01267  Uiso   1.00
Fe1515 Fe    0.56362   0.59077   0.88598   0.01267  Uiso   1.00
Fe1516 Fe    0.61479   0.52001   0.84563   0.01267  Uiso   1.00
Fe1517 Fe    0.66597   0.59077   0.88598   0.01267  Uiso   1.00
Fe1518 Fe    0.71714   0.52001   0.84563   0.01267  Uiso   1.00
Fe1519 Fe    0.76831   0.59077   0.88598   0.01267  Uiso   1.00
Fe1520 Fe    0.81949   0.52001   0.84563   0.01267  Uiso   1.00
Fe1521 Fe    0.87066   0.59077   0.88598   0.01267  Uiso   1.00
Fe1522 Fe    0.92183   0.52001   0.84563   0.01267  Uiso   1.00
Fe1523 Fe    0.97301   0.59077   0.88598   0.01267  Uiso   1.00
Fe1524 Fe    0.51245   0.66153   0.84563   0.01267  Uiso   1.00
Fe1525 Fe    0.56362   0.73229   0.88598   0.01267  Uiso   1.00
Fe1526 Fe    0.61479   0.66153   0.84563   0.01267  Uiso   1.00
Fe1527 Fe    0.66597   0.73229   0.88598   0.01267  Uiso   1.00
Fe1528 Fe    0.71714   0.66153   0.84563   0.01267  Uiso   1.00
Fe1529 Fe    0.76831   0.73229   0.88598   0.01267  Uiso   1.00
Fe1530 Fe    0.81949   0.66153   0.84563   0.01267  Uiso   1.00
Fe1531 Fe    0.87066   0.73229   0.88598   0.01267  Uiso   1.00
Fe1532 Fe    0.92183   0.66153   0.84563   0.01267  Uiso   1.00
Fe1533 Fe    0.97301   0.73229   0.88598   0.01267  Uiso   1.00
Fe1534 Fe    0.56362   0.02469   0.96667   0.01267  Uiso   1.00
Fe1535 Fe    0.66597   0.02469   0.96667   0.01267  Uiso   1.00
Fe1536 Fe    0.76831   0.02469   0.96667   0.01267  Uiso   1.00
Fe1537 Fe    0.87066   0.02469   0.96667   0.01267  Uiso   1.00
Fe1538 Fe    0.97301   0.02469   0.96667   0.01267  Uiso   1.00
Fe1539 Fe    0.51245   0.09545   0.92632   0.01267  Uiso   1.00
Fe1540 Fe    0.56362   0.16621   0.96667   0.01267  Uiso   1.00
Fe1541 Fe    0.61479   0.09545   0.92632   0.01267  Uiso   1.00
Fe1542 Fe    0.66597   0.16621   0.96667   0.01267  Uiso   1.00
Fe1543 Fe    0.71714   0.09545   0.92632   0.01267  Uiso   1.00
Fe1544 Fe    0.76831   0.16621   0.96667   0.01267  Uiso   1.00
Fe1545 Fe    0.81949   0.09545   0.92632   0.01267  Uiso   1.00
Fe1546 Fe    0.87066   0.16621   0.96667   0.01267  Uiso   1.00
Fe1547 Fe    0.92183   0.09545   0.92632   0.01267  Uiso   1.00
Fe1548 Fe    0.97301   0.16621   0.96667   0.01267  Uiso   1.00
Fe1549 Fe    0.51245   0.23697   0.92632   0.01267  Uiso   1.00
Fe1550 Fe    0.56362   0.30773   0.96667   0.01267  Uiso   1.00
Fe1551 Fe    0.61479   0.23697   0.92632   0.01267  Uiso   1.00
Fe1552 Fe    0.66597   0.30773   0.96667   0.01267  Uiso   1.00
Fe1553 Fe    0.71714   0.23697   0.92632   0.01267  Uiso   1.00
Fe1554 Fe    0.76831   0.30773   0.96667   0.01267  Uiso   1.00
Fe1555 Fe    0.81949   0.23697   0.92632   0.01267  Uiso   1.00
Fe1556 Fe    0.87066   0.30773   0.96667   0.01267  Uiso   1.00
Fe1557 Fe    0.92183   0.23697   0.92632   0.01267  Uiso   1.00
Fe1558 Fe    0.97301   0.30773   0.96667   0.01267  Uiso   1.00
Fe1559 Fe    0.51245   0.37849   0.92632   0.01267  Uiso   1.00
Fe1560 Fe    0.56362   0.44925   0.96667   0.01267  Uiso   1.00
Fe1561 Fe    0.61479   0.37849   0.92632   0.01267  Uiso   1.00
Fe1562 Fe    0.66597   0.44925   0.96667   0.01267  Uiso   1.00
Fe1563 Fe    0.71714   0.37849   0.92632   0.01267  Uiso   1.00
Fe1564 Fe    0.76831   0.44925   0.96667   0.01267  Uiso   1.00
Fe1565 Fe    0.81949   0.37849   0.92632   0.01267  Uiso   1.00
Fe1566 Fe    0.87066   0.44925   0.96667   0.01267  Uiso   1.00
Fe1567 Fe    0.92183   0.37849   0.92632   0.01267  Uiso   1.00
Fe1568 Fe    0.97301   0.44925   0.96667   0.01267  Uiso   1.00
Fe1569 Fe    0.51245   0.52001   0.92632   0.01267  Uiso   1.00
Fe1570 Fe    0.56362   0.59077   0.96667   0.01267  Uiso   1.00
Fe1571 Fe    0.61479   0.52001   0.92632   0.01267  Uiso   1.00
Fe1572 Fe    0.66597   0.59077   0.96667   0.01267  Uiso   1.00
Fe1573 Fe    0.71714   0.52001   0.92632   0.01267  Uiso   1.00
Fe1574 Fe    0.76831   0.59077   0.96667   0.01267  Uiso   1.00
Fe1575 Fe    0.81949   0.52001   0.92632   0.01267  Uiso   1.00
Fe1576 Fe    0.87066   0.59077   0.96667   0.01267  Uiso   1.00
Fe1577 Fe    0.92183   0.52001   0.92632   0.01267  Uiso   1.00
Fe1578 Fe    0.97301   0.59077   0.96667   0.01267  Uiso   1.00
Fe1579 Fe    0.51245   0.66153   0.92632   0.01267  Uiso   1.00
Fe1580 Fe    0.56362   0.73229   0.96667   0.01267  Uiso   1.00
Fe1581 Fe    0.61479   0.66153   0.92632   0.01267  Uiso   1.00
Fe1582 Fe    0.66597   0.73229   0.96667   0.01267  Uiso   1.00
Fe1583 Fe    0.71714   0.66153   0.92632   0.01267  Uiso   1.00
Fe1584 Fe    0.76831   0.73229   0.96667   0.01267  Uiso   1.00
Fe1585 Fe    0.81949   0.66153   0.92632   0.01267  Uiso   1.00
Fe1586 Fe    0.87066   0.73229   0.96667   0.01267  Uiso   1.00
Fe1587 Fe    0.92183   0.66153   0.92632   0.01267  Uiso   1.00
Fe1588 Fe    0.97301   0.73229   0.96667   0.01267  Uiso   1.00
Fe1589 Fe    0.05188   0.87381   0.56322   0.01267  Uiso   1.00
Fe1590 Fe    0.10306   0.80305   0.52287   0.01267  Uiso   1.00
Fe1591 Fe    0.15423   0.87381   0.56322   0.01267  Uiso   1.00
Fe1592 Fe    0.20540   0.80305   0.52287   0.01267  Uiso   1.00
Fe1593 Fe    0.25658   0.87381   0.56322   0.01267  Uiso   1.00
Fe1594 Fe    0.30775   0.80305   0.52287   0.01267  Uiso   1.00
Fe1595 Fe    0.35892   0.87381   0.56322   0.01267  Uiso   1.00
Fe1596 Fe    0.41010   0.80305   0.52287   0.01267  Uiso   1.00
Fe1597 Fe    0.46127   0.87381   0.56322   0.01267  Uiso   1.00
Fe1598 Fe    0.10306   0.94457   0.52287   0.01267  Uiso   1.00
Fe1599 Fe    0.20540   0.94457   0.52287   0.01267  Uiso   1.00
Fe1600 Fe    0.30775   0.94457   0.52287   0.01267  Uiso   1.00
Fe1601 Fe    0.41010   0.94457   0.52287   0.01267  Uiso   1.00
Fe1602 Fe    0.05188   0.87381   0.64391   0.01267  Uiso   1.00
Fe1603 Fe    0.10306   0.80305   0.60356   0.01267  Uiso   1.00
Fe1604 Fe    0.15423   0.87381   0.64391   0.01267  Uiso   1.00
Fe1605 Fe    0.20540   0.80305   0.60356   0.01267  Uiso   1.00
Fe1606 Fe    0.25658   0.87381   0.64391   0.01267  Uiso   1.00
Fe1607 Fe    0.30775   0.80305   0.60356   0.01267  Uiso   1.00
Fe1608 Fe    0.35892   0.87381   0.64391   0.01267  Uiso   1.00
Fe1609 Fe    0.41010   0.80305   0.60356   0.01267  Uiso   1.00
Fe1610 Fe    0.46127   0.87381   0.64391   0.01267  Uiso   1.00
Fe1611 Fe    0.10306   0.94457   0.60356   0.01267  Uiso   1.00
Fe1612 Fe    0.20540   0.94457   0.60356   0.01267  Uiso   1.00
Fe1613 Fe    0.30775   0.94457   0.60356   0.01267  Uiso   1.00
Fe1614 Fe    0.41010   0.94457   0.60356   0.01267  Uiso   1.00
Fe1615 Fe    0.05188   0.87381   0.72460   0.01267  Uiso   1.00
Fe1616 Fe    0.10306   0.80305   0.68425   0.01267  Uiso   1.00
Fe1617 Fe    0.15423   0.87381   0.72460   0.01267  Uiso   1.00
Fe1618 Fe    0.20540   0.80305   0.68425   0.01267  Uiso   1.00
Fe1619 Fe    0.25658   0.87381   0.72460   0.01267  Uiso   1.00
Fe1620 Fe    0.30775   0.80305   0.68425   0.01267  Uiso   1.00
Fe1621 Fe    0.35892   0.87381   0.72460   0.01267  Uiso   1.00
Fe1622 Fe    0.41010   0.80305   0.68425   0.01267  Uiso   1.00
Fe1623 Fe    0.46127   0.87381   0.72460   0.01267  Uiso   1.00
Fe1624 Fe    0.10306   0.94457   0.68425   0.01267  Uiso   1.00
Fe1625 Fe    0.20540   0.94457   0.68425   0.01267  Uiso   1.00
Fe1626 Fe    0.30775   0.94457   0.68425   0.01267  Uiso   1.00
Fe1627 Fe    0.41010   0.94457   0.68425   0.01267  Uiso   1.00
Fe1628 Fe    0.05188   0.87381   0.80529   0.01267  Uiso   1.00
Fe1629 Fe    0.10306   0.80305   0.76494   0.01267  Uiso   1.00
Fe1630 Fe    0.15423   0.87381   0.80529   0.01267  Uiso   1.00
Fe1631 Fe    0.20540   0.80305   0.76494   0.01267  Uiso   1.00
Fe1632 Fe    0.25658   0.87381   0.80529   0.01267  Uiso   1.00
Fe1633 Fe    0.30775   0.80305   0.76494   0.01267  Uiso   1.00
Fe1634 Fe    0.35892   0.87381   0.80529   0.01267  Uiso   1.00
Fe1635 Fe    0.41010   0.80305   0.76494   0.01267  Uiso   1.00
Fe1636 Fe    0.46127   0.87381   0.80529   0.01267  Uiso   1.00
Fe1637 Fe    0.10306   0.94457   0.76494   0.01267  Uiso   1.00
Fe1638 Fe    0.20540   0.94457   0.76494   0.01267  Uiso   1.00
Fe1639 Fe    0.30775   0.94457   0.76494   0.01267  Uiso   1.00
Fe1640 Fe    0.41010   0.94457   0.76494   0.01267  Uiso   1.00
Fe1641 Fe    0.05188   0.87381   0.88598   0.01267  Uiso   1.00
Fe1642 Fe    0.10306   0.80305   0.84563   0.01267  Uiso   1.00
Fe1643 Fe    0.15423   0.87381   0.88598   0.01267  Uiso   1.00
Fe1644 Fe    0.20540   0.80305   0.84563   0.01267  Uiso   1.00
Fe1645 Fe    0.25658   0.87381   0.88598   0.01267  Uiso   1.00
Fe1646 Fe    0.30775   0.80305   0.84563   0.01267  Uiso   1.00
Fe1647 Fe    0.35892   0.87381   0.88598   0.01267  Uiso   1.00
Fe1648 Fe    0.41010   0.80305   0.84563   0.01267  Uiso   1.00
Fe1649 Fe    0.46127   0.87381   0.88598   0.01267  Uiso   1.00
Fe1650 Fe    0.10306   0.94457   0.84563   0.01267  Uiso   1.00
Fe1651 Fe    0.20540   0.94457   0.84563   0.01267  Uiso   1.00
Fe1652 Fe    0.30775   0.94457   0.84563   0.01267  Uiso   1.00
Fe1653 Fe    0.41010   0.94457   0.84563   0.01267  Uiso   1.00
Fe1654 Fe    0.05188   0.87381   0.96667   0.01267  Uiso   1.00
Fe1655 Fe    0.10306   0.80305   0.92632   0.01267  Uiso   1.00
Fe1656 Fe    0.15423   0.87381   0.96667   0.01267  Uiso   1.00
Fe1657 Fe    0.20540   0.80305   0.92632   0.01267  Uiso   1.00
Fe1658 Fe    0.25658   0.87381   0.96667   0.01267  Uiso   1.00
Fe1659 Fe    0.30775   0.80305   0.92632   0.01267  Uiso   1.00
Fe1660 Fe    0.35892   0.87381   0.96667   0.01267  Uiso   1.00
Fe1661 Fe    0.41010   0.80305   0.92632   0.01267  Uiso   1.00
Fe1662 Fe    0.46127   0.87381   0.96667   0.01267  Uiso   1.00
Fe1663 Fe    0.10306   0.94457   0.92632   0.01267  Uiso   1.00
Fe1664 Fe    0.20540   0.94457   0.92632   0.01267  Uiso   1.00
Fe1665 Fe    0.30775   0.94457   0.92632   0.01267  Uiso   1.00
Fe1666 Fe    0.41010   0.94457   0.92632   0.01267  Uiso   1.00
Fe1667 Fe    0.51245   0.80305   0.52287   0.01267  Uiso   1.00
Fe1668 Fe    0.56362   0.87381   0.56322   0.01267  Uiso   1.00
Fe1669 Fe    0.61479   0.80305   0.52287   0.01267  Uiso   1.00
Fe1670 Fe    0.66597   0.87381   0.56322   0.01267  Uiso   1.00
Fe1671 Fe    0.71714   0.80305   0.52287   0.01267  Uiso   1.00
Fe1672 Fe    0.76831   0.87381   0.56322   0.01267  Uiso   1.00
Fe1673 Fe    0.81949   0.80305   0.52287   0.01267  Uiso   1.00
Fe1674 Fe    0.87066   0.87381   0.56322   0.01267  Uiso   1.00
Fe1675 Fe    0.92183   0.80305   0.52287   0.01267  Uiso   1.00
Fe1676 Fe    0.97301   0.87381   0.56322   0.01267  Uiso   1.00
Fe1677 Fe    0.51245   0.94457   0.52287   0.01267  Uiso   1.00
Fe1678 Fe    0.61479   0.94457   0.52287   0.01267  Uiso   1.00
Fe1679 Fe    0.71714   0.94457   0.52287   0.01267  Uiso   1.00
Fe1680 Fe    0.81949   0.94457   0.52287   0.01267  Uiso   1.00
Fe1681 Fe    0.92183   0.94457   0.52287   0.01267  Uiso   1.00
Fe1682 Fe    0.51245   0.80305   0.60356   0.01267  Uiso   1.00
Fe1683 Fe    0.56362   0.87381   0.64391   0.01267  Uiso   1.00
Fe1684 Fe    0.61479   0.80305   0.60356   0.01267  Uiso   1.00
Fe1685 Fe    0.66597   0.87381   0.64391   0.01267  Uiso   1.00
Fe1686 Fe    0.71714   0.80305   0.60356   0.01267  Uiso   1.00
Fe1687 Fe    0.76831   0.87381   0.64391   0.01267  Uiso   1.00
Fe1688 Fe    0.81949   0.80305   0.60356   0.01267  Uiso   1.00
Fe1689 Fe    0.87066   0.87381   0.64391   0.01267  Uiso   1.00
Fe1690 Fe    0.92183   0.80305   0.60356   0.01267  Uiso   1.00
Fe1691 Fe    0.97301   0.87381   0.64391   0.01267  Uiso   1.00
Fe1692 Fe    0.51245   0.94457   0.60356   0.01267  Uiso   1.00
Fe1693 Fe    0.61479   0.94457   0.60356   0.01267  Uiso   1.00
Fe1694 Fe    0.71714   0.94457   0.60356   0.01267  Uiso   1.00
Fe1695 Fe    0.81949   0.94457   0.60356   0.01267  Uiso   1.00
Fe1696 Fe    0.92183   0.94457   0.60356   0.01267  Uiso   1.00
Fe1697 Fe    0.51245   0.80305   0.68425   0.01267  Uiso   1.00
Fe1698 Fe    0.56362   0.87381   0.72460   0.01267  Uiso   1.00
Fe1699 Fe    0.61479   0.80305   0.68425   0.01267  Uiso   1.00
Fe1700 Fe    0.66597   0.87381   0.72460   0.01267  Uiso   1.00
Fe1701 Fe    0.71714   0.80305   0.68425   0.01267  Uiso   1.00
Fe1702 Fe    0.76831   0.87381   0.72460   0.01267  Uiso   1.00
Fe1703 Fe    0.81949   0.80305   0.68425   0.01267  Uiso   1.00
Fe1704 Fe    0.87066   0.87381   0.72460   0.01267  Uiso   1.00
Fe1705 Fe    0.92183   0.80305   0.68425   0.01267  Uiso   1.00
Fe1706 Fe    0.97301   0.87381   0.72460   0.01267  Uiso   1.00
Fe1707 Fe    0.51245   0.94457   0.68425   0.01267  Uiso   1.00
Fe1708 Fe    0.61479   0.94457   0.68425   0.01267  Uiso   1.00
Fe1709 Fe    0.71714   0.94457   0.68425   0.01267  Uiso   1.00
Fe1710 Fe    0.81949   0.94457   0.68425   0.01267  Uiso   1.00
Fe1711 Fe    0.92183   0.94457   0.68425   0.01267  Uiso   1.00
Fe1712 Fe    0.51245   0.80305   0.76494   0.01267  Uiso   1.00
Fe1713 Fe    0.56362   0.87381   0.80529   0.01267  Uiso   1.00
Fe1714 Fe    0.61479   0.80305   0.76494   0.01267  Uiso   1.00
Fe1715 Fe    0.66597   0.87381   0.80529   0.01267  Uiso   1.00
Fe1716 Fe    0.71714   0.80305   0.76494   0.01267  Uiso   1.00
Fe1717 Fe    0.76831   0.87381   0.80529   0.01267  Uiso   1.00
Fe1718 Fe    0.81949   0.80305   0.76494   0.01267  Uiso   1.00
Fe1719 Fe    0.87066   0.87381   0.80529   0.01267  Uiso   1.00
Fe1720 Fe    0.92183   0.80305   0.76494   0.01267  Uiso   1.00
Fe1721 Fe    0.97301   0.87381   0.80529   0.01267  Uiso   1.00
Fe1722 Fe    0.51245   0.94457   0.76494   0.01267  Uiso   1.00
Fe1723 Fe    0.61479   0.94457   0.76494   0.01267  Uiso   1.00
Fe1724 Fe    0.71714   0.94457   0.76494   0.01267  Uiso   1.00
Fe1725 Fe    0.81949   0.94457   0.76494   0.01267  Uiso   1.00
Fe1726 Fe    0.92183   0.94457   0.76494   0.01267  Uiso   1.00
Fe1727 Fe    0.51245   0.80305   0.84563   0.01267  Uiso   1.00
Fe1728 Fe    0.56362   0.87381   0.88598   0.01267  Uiso   1.00
Fe1729 Fe    0.61479   0.80305   0.84563   0.01267  Uiso   1.00
Fe1730 Fe    0.66597   0.87381   0.88598   0.01267  Uiso   1.00
Fe1731 Fe    0.71714   0.80305   0.84563   0.01267  Uiso   1.00
Fe1732 Fe    0.76831   0.87381   0.88598   0.01267  Uiso   1.00
Fe1733 Fe    0.81949   0.80305   0.84563   0.01267  Uiso   1.00
Fe1734 Fe    0.87066   0.87381   0.88598   0.01267  Uiso   1.00
Fe1735 Fe    0.92183   0.80305   0.84563   0.01267  Uiso   1.00
Fe1736 Fe    0.97301   0.87381   0.88598   0.01267  Uiso   1.00
Fe1737 Fe    0.51245   0.94457   0.84563   0.01267  Uiso   1.00
Fe1738 Fe    0.61479   0.94457   0.84563   0.01267  Uiso   1.00
Fe1739 Fe    0.71714   0.94457   0.84563   0.01267  Uiso   1.00
Fe1740 Fe    0.81949   0.94457   0.84563   0.01267  Uiso   1.00
Fe1741 Fe    0.92183   0.94457   0.84563   0.01267  Uiso   1.00
Fe1742 Fe    0.51245   0.80305   0.92632   0.01267  Uiso   1.00
Fe1743 Fe    0.56362   0.87381   0.96667   0.01267  Uiso   1.00
Fe1744 Fe    0.61479   0.80305   0.92632   0.01267  Uiso   1.00
Fe1745 Fe    0.66597   0.87381   0.96667   0.01267  Uiso   1.00
Fe1746 Fe    0.71714   0.80305   0.92632   0.01267  Uiso   1.00
Fe1747 Fe    0.76831   0.87381   0.96667   0.01267  Uiso   1.00
Fe1748 Fe    0.81949   0.80305   0.92632   0.01267  Uiso   1.00
Fe1749 Fe    0.87066   0.87381   0.96667   0.01267  Uiso   1.00
Fe1750 Fe    0.92183   0.80305   0.92632   0.01267  Uiso   1.00
Fe1751 Fe    0.97301   0.87381   0.96667   0.01267  Uiso   1.00
Fe1752 Fe    0.51245   0.94457   0.92632   0.01267  Uiso   1.00
Fe1753 Fe    0.61479   0.94457   0.92632   0.01267  Uiso   1.00
Fe1754 Fe    0.71714   0.94457   0.92632   0.01267  Uiso   1.00
Fe1755 Fe    0.81949   0.94457   0.92632   0.01267  Uiso   1.00
Fe1756 Fe    0.92183   0.94457   0.92632   0.01267  Uiso   1.00
